# File generated by Flopy version 3.7.0 on 05/31/2024 at 10:49:45.
BEGIN options
  SAVE_FLOWS
END options

BEGIN packages
  DISV6  gwf.disv  disv
  NPF6  gwf.npf  npf
  IC6  gwf.ic  ic
  CHD6  gwf.left.chd  chd-left
  CHD6  gwf.right.chd  chd-right
  OC6  gwf.oc  oc
END packages

