# File generated by Flopy version 3.7.0 on 05/31/2024 at 10:49:45.
BEGIN options
  BUDGET  FILEOUT  gwf.cbc
  HEAD  FILEOUT  gwf.hds
END options

BEGIN period  1
  SAVE  HEAD  ALL
  SAVE  BUDGET  ALL
END period  1

