# File generated by Flopy version 3.7.0 on 05/31/2024 at 10:49:45.
BEGIN options
END options

BEGIN dimensions
  MAXBOUND  7
END dimensions

BEGIN period  1
  1 7 0.00000000E+00
  1 14 0.00000000E+00
  1 18 0.00000000E+00
  1 22 0.00000000E+00
  1 26 0.00000000E+00
  1 33 0.00000000E+00
  1 40 0.00000000E+00
END period  1

