# File generated by Flopy version 3.7.0 on 05/31/2024 at 10:49:45.
BEGIN options
END options

BEGIN dimensions
  MAXBOUND  7
END dimensions

BEGIN period  1
  1 1 1.00000000E+00
  1 8 1.00000000E+00
  1 15 1.00000000E+00
  1 19 1.00000000E+00
  1 23 1.00000000E+00
  1 27 1.00000000E+00
  1 34 1.00000000E+00
END period  1

