# File generated by Flopy version 3.7.0 on 05/31/2024 at 10:49:45.
BEGIN options
END options

BEGIN griddata
  strt
    CONSTANT       0.00000000
END griddata

