# File generated by Flopy version 3.7.0 on 05/31/2024 at 10:49:45.
BEGIN options
END options

BEGIN timing
  TDIS6  sim.tdis
END timing

BEGIN models
  gwf6  gwf.nam  gwf
END models

BEGIN exchanges
END exchanges

BEGIN solutiongroup  1
  ims6  sim.ims  gwf
END solutiongroup  1

