BEGIN MODFLOW_GRID basegrid
	ROTATION_ANGLE = 0
	X_OFFSET = 214270
	Y_OFFSET = 4366610
	LENGTH_UNIT = undefined
	NLAY = 1
	NROW = 69
	NCOL = 74
	DELR =  CONSTANT 100.0
	DELC =  CONSTANT 100.0
	TOP =  OPEN/CLOSE top.dat
	BOTTOM LAYER 1 =  CONSTANT 0.0
END MODFLOW_GRID

BEGIN QUADTREE quadtreegrid
	MODFLOW_GRID = basegrid
	STRUCTURE_File  = OPEN/CLOSE quadtreegrid.tsf
	TOP LAYER 1 = OPEN/CLOSE quadtreegrid.top1.dat
	BOTTOM LAYER 1 = OPEN/CLOSE quadtreegrid.bot1.dat
END QUADTREE
