# File generated by Flopy version 3.7.0 on 05/31/2024 at 13:13:14.
BEGIN options
  TIME_UNITS  days
END options

BEGIN dimensions
  NPER  127
END dimensions

BEGIN perioddata
      10.00000000  1       1.00000000
      10.00000000  1       1.00000000
      10.00000000  1       1.00000000
      10.00000000  1       1.00000000
      10.00000000  1       1.00000000
      10.00000000  1       1.00000000
      10.00000000  1       1.00000000
      10.00000000  1       1.00000000
      10.00000000  1       1.00000000
      10.00000000  1       1.00000000
      10.00000000  1       1.00000000
      10.00000000  1       1.00000000
      10.00000000  1       1.00000000
      10.00000000  1       1.00000000
      10.00000000  1       1.00000000
      10.00000000  1       1.00000000
      10.00000000  1       1.00000000
      10.00000000  1       1.00000000
      10.00000000  1       1.00000000
      10.00000000  1       1.00000000
      10.00000000  1       1.00000000
      10.00000000  1       1.00000000
      10.00000000  1       1.00000000
      10.00000000  1       1.00000000
      10.00000000  1       1.00000000
      10.00000000  1       1.00000000
      10.00000000  1       1.00000000
      10.00000000  1       1.00000000
      10.00000000  1       1.00000000
      10.00000000  1       1.00000000
      10.00000000  1       1.00000000
      10.00000000  1       1.00000000
      10.00000000  1       1.00000000
      10.00000000  1       1.00000000
      10.00000000  1       1.00000000
      10.00000000  1       1.00000000
      10.00000000  1       1.00000000
      10.00000000  1       1.00000000
      10.00000000  1       1.00000000
      10.00000000  1       1.00000000
      10.00000000  1       1.00000000
      10.00000000  1       1.00000000
      10.00000000  1       1.00000000
      10.00000000  1       1.00000000
      10.00000000  1       1.00000000
      10.00000000  1       1.00000000
      10.00000000  1       1.00000000
      10.00000000  1       1.00000000
      10.00000000  1       1.00000000
      10.00000000  1       1.00000000
      10.00000000  1       1.00000000
      10.00000000  1       1.00000000
      10.00000000  1       1.00000000
      10.00000000  1       1.00000000
      10.00000000  1       1.00000000
      10.00000000  1       1.00000000
      10.00000000  1       1.00000000
      10.00000000  1       1.00000000
      10.00000000  1       1.00000000
      10.00000000  1       1.00000000
      10.00000000  1       1.00000000
      10.00000000  1       1.00000000
      10.00000000  1       1.00000000
      10.00000000  1       1.00000000
      10.00000000  1       1.00000000
      10.00000000  1       1.00000000
      10.00000000  1       1.00000000
      10.00000000  1       1.00000000
      10.00000000  1       1.00000000
      10.00000000  1       1.00000000
      10.00000000  1       1.00000000
      10.00000000  1       1.00000000
      10.00000000  1       1.00000000
      10.00000000  1       1.00000000
      10.00000000  1       1.00000000
      10.00000000  1       1.00000000
      10.00000000  1       1.00000000
      10.00000000  1       1.00000000
      10.00000000  1       1.00000000
      10.00000000  1       1.00000000
      10.00000000  1       1.00000000
      10.00000000  1       1.00000000
      10.00000000  1       1.00000000
      10.00000000  1       1.00000000
      10.00000000  1       1.00000000
      10.00000000  1       1.00000000
      10.00000000  1       1.00000000
      10.00000000  1       1.00000000
      10.00000000  1       1.00000000
      10.00000000  1       1.00000000
      10.00000000  1       1.00000000
      10.00000000  1       1.00000000
      10.00000000  1       1.00000000
      10.00000000  1       1.00000000
      10.00000000  1       1.00000000
      10.00000000  1       1.00000000
      10.00000000  1       1.00000000
      10.00000000  1       1.00000000
      10.00000000  1       1.00000000
      10.00000000  1       1.00000000
      10.00000000  1       1.00000000
      10.00000000  1       1.00000000
      10.00000000  1       1.00000000
      10.00000000  1       1.00000000
      10.00000000  1       1.00000000
      10.00000000  1       1.00000000
      10.00000000  1       1.00000000
      10.00000000  1       1.00000000
      10.00000000  1       1.00000000
      10.00000000  1       1.00000000
      10.00000000  1       1.00000000
      10.00000000  1       1.00000000
      10.00000000  1       1.00000000
      10.00000000  1       1.00000000
      10.00000000  1       1.00000000
      10.00000000  1       1.00000000
      10.00000000  1       1.00000000
      10.00000000  1       1.00000000
      10.00000000  1       1.00000000
      10.00000000  1       1.00000000
      10.00000000  1       1.00000000
      10.00000000  1       1.00000000
      10.00000000  1       1.00000000
      10.00000000  1       1.00000000
      10.00000000  1       1.00000000
      10.00000000  1       1.00000000
      10.00000000  1       1.00000000
END perioddata

