# File generated by Flopy version 3.7.0 on 05/31/2024 at 13:13:19.
BEGIN options
  BUDGET  FILEOUT  gwe-ates.cbc
  TEMPERATURE  FILEOUT  gwe-ates.ucn
  TEMPERATURE  PRINT_FORMAT  COLUMNS  10  WIDTH  15  DIGITS  6  GENERAL
END options

BEGIN period  1
  SAVE  TEMPERATURE  ALL
  SAVE  BUDGET  ALL
  PRINT  TEMPERATURE  ALL
  PRINT  BUDGET  ALL
END period  1

