# File generated by Flopy version 3.7.0 on 05/31/2024 at 13:13:18.
BEGIN options
END options

BEGIN packages
  DISV6  gwe-ates.disv  disv-gwe
  IC6  gwe-ates.ic  ic
  ADV6  gwe-ates.adv  adv
  EST6  gwe-ates.est  est
  CND6  gwe-ates.cnd  cnd
  SSM6  gwe-ates.ssm  ssm
  OC6  gwe-ates.oc  oc
END packages

