# File generated by Flopy version 3.7.0 on 05/31/2024 at 13:13:19.
BEGIN options
  XT3D_OFF
END options

BEGIN griddata
  alh
    CONSTANT       0.10000000
  ath1
    CONSTANT       0.01000000
  ktw
    CONSTANT       0.58000000
  kts
    INTERNAL  FACTOR  1.0
    2.59200000E+05  2.59200000E+05  1.20960000E+05  1.20960000E+05  2.59200000E+05  1.20960000E+05  1.20960000E+05  1.20960000E+05  1.20960000E+05  2.59200000E+05  1.20960000E+05  2.59200000E+05  2.59200000E+05  1.20960000E+05  1.20960000E+05  2.59200000E+05  2.59200000E+05  1.20960000E+05  2.59200000E+05  1.20960000E+05
    2.59200000E+05  2.59200000E+05  1.20960000E+05  1.20960000E+05  1.20960000E+05  2.59200000E+05  1.20960000E+05  1.20960000E+05  2.59200000E+05  1.20960000E+05  1.20960000E+05  1.20960000E+05  1.20960000E+05  1.20960000E+05  1.20960000E+05  1.20960000E+05  1.20960000E+05  2.59200000E+05  2.59200000E+05  1.20960000E+05
    1.20960000E+05  2.59200000E+05  1.20960000E+05  1.20960000E+05  2.59200000E+05  2.59200000E+05  1.20960000E+05  1.20960000E+05  1.20960000E+05  1.20960000E+05  1.20960000E+05  1.20960000E+05  2.59200000E+05  1.20960000E+05  2.59200000E+05  1.20960000E+05  2.59200000E+05  1.20960000E+05  1.20960000E+05  1.20960000E+05
    1.20960000E+05  1.20960000E+05  1.20960000E+05  1.20960000E+05  1.20960000E+05  1.20960000E+05  1.20960000E+05  1.20960000E+05  1.20960000E+05  1.20960000E+05  1.20960000E+05  2.59200000E+05  1.20960000E+05  1.20960000E+05  1.20960000E+05  1.20960000E+05  1.20960000E+05  1.20960000E+05  1.20960000E+05  1.20960000E+05
    1.20960000E+05  2.59200000E+05  2.59200000E+05  1.20960000E+05  1.20960000E+05  1.20960000E+05  1.20960000E+05  1.20960000E+05  1.20960000E+05  1.20960000E+05  1.20960000E+05  1.20960000E+05  1.20960000E+05  1.20960000E+05  2.59200000E+05  2.59200000E+05  1.20960000E+05  1.20960000E+05  1.20960000E+05  1.20960000E+05
    1.20960000E+05  1.20960000E+05  1.20960000E+05  1.20960000E+05  1.20960000E+05  2.59200000E+05  2.59200000E+05  2.59200000E+05  1.20960000E+05  2.59200000E+05  2.59200000E+05  2.59200000E+05  2.59200000E+05  2.59200000E+05  2.59200000E+05  2.59200000E+05  2.59200000E+05  2.59200000E+05  2.59200000E+05  2.59200000E+05
    1.20960000E+05  2.59200000E+05  2.59200000E+05  2.59200000E+05  2.59200000E+05  2.59200000E+05  2.59200000E+05  2.59200000E+05  2.59200000E+05  2.59200000E+05  2.59200000E+05  2.59200000E+05  1.20960000E+05  2.59200000E+05  2.59200000E+05  2.59200000E+05  2.59200000E+05  2.59200000E+05  2.59200000E+05  2.59200000E+05
    2.59200000E+05  2.59200000E+05  2.59200000E+05  2.59200000E+05  2.59200000E+05  2.59200000E+05  2.59200000E+05  2.59200000E+05  2.59200000E+05  2.59200000E+05  2.59200000E+05  2.59200000E+05  2.59200000E+05  2.59200000E+05  2.59200000E+05  2.59200000E+05  2.59200000E+05  2.59200000E+05  2.59200000E+05  2.59200000E+05
    2.59200000E+05  2.59200000E+05  2.59200000E+05  2.59200000E+05  2.59200000E+05  2.59200000E+05  2.59200000E+05  2.59200000E+05  2.59200000E+05  2.59200000E+05  2.59200000E+05  2.59200000E+05  2.59200000E+05  2.59200000E+05  2.59200000E+05  2.59200000E+05  2.59200000E+05  2.59200000E+05  2.59200000E+05  2.59200000E+05
    2.59200000E+05  2.59200000E+05  2.59200000E+05  2.59200000E+05  2.59200000E+05  2.59200000E+05  2.59200000E+05  2.59200000E+05  2.59200000E+05  2.59200000E+05  2.59200000E+05  2.59200000E+05  2.59200000E+05  2.59200000E+05  2.59200000E+05  2.59200000E+05  2.59200000E+05  2.59200000E+05  2.59200000E+05  2.59200000E+05
    2.59200000E+05  2.59200000E+05  2.59200000E+05  2.59200000E+05  2.59200000E+05  2.59200000E+05  2.59200000E+05  2.59200000E+05  2.59200000E+05  2.59200000E+05  2.59200000E+05  2.59200000E+05  2.59200000E+05  2.59200000E+05  2.59200000E+05  2.59200000E+05  2.59200000E+05  2.59200000E+05  2.59200000E+05  2.59200000E+05
    2.59200000E+05  2.59200000E+05  2.59200000E+05  2.59200000E+05  2.59200000E+05  2.59200000E+05  2.59200000E+05  2.59200000E+05  2.59200000E+05  2.59200000E+05  2.59200000E+05  2.59200000E+05  2.59200000E+05  2.59200000E+05  2.59200000E+05  2.59200000E+05  2.59200000E+05  2.59200000E+05  2.59200000E+05  2.59200000E+05
    2.59200000E+05  2.59200000E+05  2.59200000E+05  2.59200000E+05  2.59200000E+05  2.59200000E+05  2.59200000E+05  1.20960000E+05  2.59200000E+05  2.59200000E+05  2.59200000E+05  2.59200000E+05  2.59200000E+05  2.59200000E+05  2.59200000E+05  2.59200000E+05  2.59200000E+05  2.59200000E+05  2.59200000E+05  2.59200000E+05
    2.59200000E+05  2.59200000E+05  2.59200000E+05  2.59200000E+05  2.59200000E+05  2.59200000E+05  2.59200000E+05  2.59200000E+05  2.59200000E+05  2.59200000E+05  2.59200000E+05  2.59200000E+05  2.59200000E+05  2.59200000E+05  2.59200000E+05  2.59200000E+05  2.59200000E+05  2.59200000E+05  2.59200000E+05  2.59200000E+05
    2.59200000E+05  2.59200000E+05  2.59200000E+05  2.59200000E+05  2.59200000E+05  2.59200000E+05  2.59200000E+05  2.59200000E+05  2.59200000E+05  2.59200000E+05  2.59200000E+05  2.59200000E+05  2.59200000E+05  2.59200000E+05  2.59200000E+05  2.59200000E+05  2.59200000E+05  2.59200000E+05  2.59200000E+05  2.59200000E+05
    2.59200000E+05  2.59200000E+05  2.59200000E+05  2.59200000E+05  2.59200000E+05  2.59200000E+05  2.59200000E+05  2.59200000E+05  2.59200000E+05  2.59200000E+05  2.59200000E+05  2.59200000E+05  2.59200000E+05  2.59200000E+05  2.59200000E+05  2.59200000E+05  2.59200000E+05  2.59200000E+05  2.59200000E+05  2.59200000E+05
    2.59200000E+05  2.59200000E+05  2.59200000E+05  2.59200000E+05  2.59200000E+05  2.59200000E+05  2.59200000E+05  2.59200000E+05  2.59200000E+05  2.59200000E+05  2.59200000E+05  2.59200000E+05  2.59200000E+05  2.59200000E+05  2.59200000E+05  2.59200000E+05  2.59200000E+05  2.59200000E+05  2.59200000E+05  2.59200000E+05
    2.59200000E+05  2.59200000E+05  2.59200000E+05  2.59200000E+05  2.59200000E+05  2.59200000E+05  2.59200000E+05  2.59200000E+05  2.59200000E+05  2.59200000E+05  2.59200000E+05  2.59200000E+05  2.59200000E+05  2.59200000E+05  2.59200000E+05  2.59200000E+05  2.59200000E+05  2.59200000E+05  2.59200000E+05  2.59200000E+05
    2.59200000E+05  2.59200000E+05  2.59200000E+05  2.59200000E+05  2.59200000E+05  2.59200000E+05  2.59200000E+05  2.59200000E+05  2.59200000E+05  2.59200000E+05  2.59200000E+05  2.59200000E+05  2.59200000E+05  2.59200000E+05  2.59200000E+05  2.59200000E+05  1.20960000E+05  2.59200000E+05  2.59200000E+05  2.59200000E+05
    2.59200000E+05  2.59200000E+05  2.59200000E+05  2.59200000E+05  2.59200000E+05  2.59200000E+05  2.59200000E+05  2.59200000E+05  2.59200000E+05  2.59200000E+05  2.59200000E+05  2.59200000E+05  2.59200000E+05  2.59200000E+05  2.59200000E+05  2.59200000E+05  2.59200000E+05  2.59200000E+05  2.59200000E+05  2.59200000E+05
    2.59200000E+05  2.59200000E+05  2.59200000E+05  2.59200000E+05  2.59200000E+05  2.59200000E+05  1.20960000E+05  2.59200000E+05  2.59200000E+05  2.59200000E+05  2.59200000E+05  2.59200000E+05  2.59200000E+05  2.59200000E+05  2.59200000E+05  2.59200000E+05  2.59200000E+05  2.59200000E+05  2.59200000E+05  2.59200000E+05
    2.59200000E+05  2.59200000E+05  2.59200000E+05  2.59200000E+05  2.59200000E+05  1.20960000E+05  2.59200000E+05  2.59200000E+05  2.59200000E+05  2.59200000E+05  2.59200000E+05  2.59200000E+05  2.59200000E+05  2.59200000E+05  2.59200000E+05  2.59200000E+05  2.59200000E+05  2.59200000E+05  2.59200000E+05  2.59200000E+05
    2.59200000E+05  2.59200000E+05  2.59200000E+05  2.59200000E+05  2.59200000E+05  1.20960000E+05  2.59200000E+05  2.59200000E+05  2.59200000E+05  2.59200000E+05  2.59200000E+05  2.59200000E+05  2.59200000E+05  2.59200000E+05  2.59200000E+05  2.59200000E+05  2.59200000E+05  2.59200000E+05  2.59200000E+05  2.59200000E+05
    2.59200000E+05  2.59200000E+05  2.59200000E+05  2.59200000E+05  2.59200000E+05  2.59200000E+05  2.59200000E+05  2.59200000E+05  2.59200000E+05  2.59200000E+05  2.59200000E+05  2.59200000E+05  2.59200000E+05  2.59200000E+05  2.59200000E+05  2.59200000E+05  2.59200000E+05  2.59200000E+05  2.59200000E+05  2.59200000E+05
    2.59200000E+05  2.59200000E+05  2.59200000E+05  2.59200000E+05  2.59200000E+05  2.59200000E+05  2.59200000E+05  2.59200000E+05  2.59200000E+05  2.59200000E+05  2.59200000E+05  2.59200000E+05  2.59200000E+05  2.59200000E+05  2.59200000E+05  2.59200000E+05  2.59200000E+05  2.59200000E+05  2.59200000E+05  2.59200000E+05
    2.59200000E+05  2.59200000E+05  2.59200000E+05  2.59200000E+05  2.59200000E+05  2.59200000E+05  2.59200000E+05  1.20960000E+05  2.59200000E+05  2.59200000E+05  2.59200000E+05  2.59200000E+05  2.59200000E+05  2.59200000E+05  1.20960000E+05  2.59200000E+05  2.59200000E+05  2.59200000E+05  2.59200000E+05  2.59200000E+05
    2.59200000E+05  2.59200000E+05  2.59200000E+05  1.20960000E+05  2.59200000E+05  2.59200000E+05  2.59200000E+05  2.59200000E+05  2.59200000E+05  2.59200000E+05  2.59200000E+05  2.59200000E+05  2.59200000E+05  2.59200000E+05  2.59200000E+05  2.59200000E+05  2.59200000E+05  2.59200000E+05  2.59200000E+05  2.59200000E+05
    2.59200000E+05  2.59200000E+05  2.59200000E+05  2.59200000E+05  2.59200000E+05  2.59200000E+05  2.59200000E+05  2.59200000E+05  2.59200000E+05  2.59200000E+05  2.59200000E+05  2.59200000E+05  2.59200000E+05  1.20960000E+05  2.59200000E+05  1.20960000E+05  2.59200000E+05  2.59200000E+05  2.59200000E+05  2.59200000E+05
    2.59200000E+05  2.59200000E+05  2.59200000E+05  2.59200000E+05  2.59200000E+05  2.59200000E+05  2.59200000E+05  2.59200000E+05  2.59200000E+05  1.20960000E+05  2.59200000E+05  2.59200000E+05  2.59200000E+05  2.59200000E+05  2.59200000E+05  2.59200000E+05  2.59200000E+05  2.59200000E+05  2.59200000E+05  2.59200000E+05
    2.59200000E+05  2.59200000E+05  2.59200000E+05  2.59200000E+05  2.59200000E+05  2.59200000E+05  2.59200000E+05  2.59200000E+05  2.59200000E+05  2.59200000E+05  2.59200000E+05  1.20960000E+05  1.20960000E+05  1.20960000E+05  1.20960000E+05  1.20960000E+05  2.59200000E+05  2.59200000E+05  2.59200000E+05  2.59200000E+05
    2.59200000E+05  2.59200000E+05  2.59200000E+05  2.59200000E+05  1.20960000E+05  1.20960000E+05  2.59200000E+05  2.59200000E+05  2.59200000E+05  2.59200000E+05  2.59200000E+05  2.59200000E+05  2.59200000E+05  1.20960000E+05  2.59200000E+05  2.59200000E+05  2.59200000E+05  2.59200000E+05  2.59200000E+05  2.59200000E+05
    2.59200000E+05  2.59200000E+05  2.59200000E+05  2.59200000E+05  2.59200000E+05  2.59200000E+05  2.59200000E+05  2.59200000E+05  2.59200000E+05  2.59200000E+05  1.20960000E+05  1.20960000E+05  2.59200000E+05  2.59200000E+05  1.20960000E+05  1.20960000E+05  2.59200000E+05  2.59200000E+05  2.59200000E+05  2.59200000E+05
    2.59200000E+05  2.59200000E+05  2.59200000E+05  2.59200000E+05  2.59200000E+05  2.59200000E+05  2.59200000E+05  2.59200000E+05  2.59200000E+05  2.59200000E+05  2.59200000E+05  2.59200000E+05  2.59200000E+05  2.59200000E+05  2.59200000E+05  2.59200000E+05  2.59200000E+05  2.59200000E+05  2.59200000E+05  1.20960000E+05
    2.59200000E+05  2.59200000E+05  2.59200000E+05  2.59200000E+05  2.59200000E+05  2.59200000E+05  2.59200000E+05  2.59200000E+05  2.59200000E+05  2.59200000E+05  1.20960000E+05  1.20960000E+05  1.20960000E+05  1.20960000E+05  2.59200000E+05  2.59200000E+05  2.59200000E+05  2.59200000E+05  2.59200000E+05  2.59200000E+05
    2.59200000E+05  2.59200000E+05  2.59200000E+05  2.59200000E+05  2.59200000E+05  2.59200000E+05  2.59200000E+05  2.59200000E+05  2.59200000E+05  2.59200000E+05  2.59200000E+05  2.59200000E+05  2.59200000E+05  2.59200000E+05  2.59200000E+05  2.59200000E+05  2.59200000E+05  2.59200000E+05  2.59200000E+05  2.59200000E+05
    2.59200000E+05  2.59200000E+05  2.59200000E+05  2.59200000E+05  2.59200000E+05  2.59200000E+05  2.59200000E+05  2.59200000E+05  2.59200000E+05  2.59200000E+05  2.59200000E+05  2.59200000E+05  2.59200000E+05  2.59200000E+05  2.59200000E+05  2.59200000E+05  2.59200000E+05  2.59200000E+05  2.59200000E+05  2.59200000E+05
    2.59200000E+05  2.59200000E+05  2.59200000E+05  2.59200000E+05  2.59200000E+05  2.59200000E+05  2.59200000E+05  2.59200000E+05  2.59200000E+05  2.59200000E+05  2.59200000E+05  2.59200000E+05  2.59200000E+05  1.20960000E+05  2.59200000E+05  2.59200000E+05  2.59200000E+05  2.59200000E+05  2.59200000E+05  2.59200000E+05
    2.59200000E+05  2.59200000E+05  2.59200000E+05  2.59200000E+05  2.59200000E+05  2.59200000E+05  2.59200000E+05  2.59200000E+05  1.20960000E+05  2.59200000E+05  2.59200000E+05  2.59200000E+05  2.59200000E+05  2.59200000E+05  2.59200000E+05  2.59200000E+05  2.59200000E+05  2.59200000E+05  2.59200000E+05  2.59200000E+05
    2.59200000E+05  2.59200000E+05  2.59200000E+05  2.59200000E+05  2.59200000E+05  2.59200000E+05  2.59200000E+05  2.59200000E+05  2.59200000E+05  2.59200000E+05  2.59200000E+05  2.59200000E+05  2.59200000E+05  2.59200000E+05  2.59200000E+05  2.59200000E+05  2.59200000E+05  2.59200000E+05  2.59200000E+05  2.59200000E+05
    2.59200000E+05  2.59200000E+05  2.59200000E+05  2.59200000E+05  2.59200000E+05  2.59200000E+05  2.59200000E+05  2.59200000E+05  2.59200000E+05  2.59200000E+05  2.59200000E+05  2.59200000E+05  2.59200000E+05  2.59200000E+05  2.59200000E+05  2.59200000E+05  1.20960000E+05  2.59200000E+05  2.59200000E+05  2.59200000E+05
    2.59200000E+05  2.59200000E+05  2.59200000E+05  1.20960000E+05  2.59200000E+05  2.59200000E+05  2.59200000E+05  2.59200000E+05  2.59200000E+05  1.20960000E+05  2.59200000E+05  2.59200000E+05  2.59200000E+05  2.59200000E+05  2.59200000E+05  2.59200000E+05  2.59200000E+05  2.59200000E+05  2.59200000E+05  2.59200000E+05
    2.59200000E+05  2.59200000E+05  2.59200000E+05  2.59200000E+05  2.59200000E+05  2.59200000E+05  2.59200000E+05  2.59200000E+05  2.59200000E+05  2.59200000E+05  2.59200000E+05  2.59200000E+05  2.59200000E+05  2.59200000E+05  2.59200000E+05  2.59200000E+05  2.59200000E+05  2.59200000E+05  2.59200000E+05  2.59200000E+05
    2.59200000E+05  2.59200000E+05  2.59200000E+05  2.59200000E+05  2.59200000E+05  2.59200000E+05  2.59200000E+05  2.59200000E+05  2.59200000E+05  2.59200000E+05  2.59200000E+05  2.59200000E+05  2.59200000E+05  2.59200000E+05  2.59200000E+05  2.59200000E+05  2.59200000E+05  2.59200000E+05  2.59200000E+05  2.59200000E+05
    2.59200000E+05  2.59200000E+05  2.59200000E+05  2.59200000E+05  2.59200000E+05  2.59200000E+05  2.59200000E+05  2.59200000E+05  2.59200000E+05  2.59200000E+05  2.59200000E+05  2.59200000E+05  2.59200000E+05  1.20960000E+05  2.59200000E+05  2.59200000E+05  2.59200000E+05  1.20960000E+05  2.59200000E+05  2.59200000E+05
    2.59200000E+05  2.59200000E+05  2.59200000E+05  2.59200000E+05  2.59200000E+05  2.59200000E+05  2.59200000E+05  2.59200000E+05  2.59200000E+05  2.59200000E+05  2.59200000E+05  2.59200000E+05  2.59200000E+05  2.59200000E+05  2.59200000E+05  2.59200000E+05  2.59200000E+05  2.59200000E+05  2.59200000E+05  1.20960000E+05
    1.20960000E+05  1.20960000E+05  1.20960000E+05  1.20960000E+05  2.59200000E+05  2.59200000E+05  2.59200000E+05  2.59200000E+05  2.59200000E+05  2.59200000E+05  2.59200000E+05  2.59200000E+05  2.59200000E+05  2.59200000E+05  2.59200000E+05  2.59200000E+05  2.59200000E+05  2.59200000E+05  2.59200000E+05  2.59200000E+05
    2.59200000E+05  1.20960000E+05  2.59200000E+05  2.59200000E+05  1.20960000E+05  1.20960000E+05  2.59200000E+05  2.59200000E+05  2.59200000E+05  2.59200000E+05  2.59200000E+05  2.59200000E+05  2.59200000E+05  2.59200000E+05  1.20960000E+05  2.59200000E+05  2.59200000E+05  2.59200000E+05  2.59200000E+05  2.59200000E+05
    2.59200000E+05  2.59200000E+05  1.20960000E+05  2.59200000E+05  2.59200000E+05  2.59200000E+05  2.59200000E+05  2.59200000E+05  2.59200000E+05  2.59200000E+05  2.59200000E+05  2.59200000E+05  2.59200000E+05  2.59200000E+05  2.59200000E+05  2.59200000E+05  2.59200000E+05  2.59200000E+05  2.59200000E+05  2.59200000E+05
    2.59200000E+05  2.59200000E+05  2.59200000E+05  2.59200000E+05  2.59200000E+05  2.59200000E+05  2.59200000E+05  2.59200000E+05  2.59200000E+05  2.59200000E+05  2.59200000E+05  2.59200000E+05  2.59200000E+05  2.59200000E+05  2.59200000E+05  2.59200000E+05  2.59200000E+05  2.59200000E+05  2.59200000E+05  2.59200000E+05
    2.59200000E+05  2.59200000E+05  2.59200000E+05  2.59200000E+05  2.59200000E+05  2.59200000E+05  2.59200000E+05  2.59200000E+05  2.59200000E+05  2.59200000E+05  2.59200000E+05  2.59200000E+05  2.59200000E+05  2.59200000E+05  2.59200000E+05  2.59200000E+05  2.59200000E+05  2.59200000E+05  2.59200000E+05  2.59200000E+05
    1.20960000E+05  2.59200000E+05  2.59200000E+05  2.59200000E+05  2.59200000E+05  2.59200000E+05  2.59200000E+05  2.59200000E+05  2.59200000E+05  2.59200000E+05  2.59200000E+05  2.59200000E+05  2.59200000E+05  2.59200000E+05  2.59200000E+05  2.59200000E+05  2.59200000E+05  2.59200000E+05  2.59200000E+05  2.59200000E+05
    2.59200000E+05  2.59200000E+05  2.59200000E+05  2.59200000E+05  2.59200000E+05  2.59200000E+05  2.59200000E+05  2.59200000E+05  2.59200000E+05  2.59200000E+05  2.59200000E+05  2.59200000E+05  2.59200000E+05  2.59200000E+05  2.59200000E+05  1.20960000E+05  2.59200000E+05  2.59200000E+05  1.20960000E+05  2.59200000E+05
    2.59200000E+05  2.59200000E+05  2.59200000E+05  1.20960000E+05  2.59200000E+05  2.59200000E+05  2.59200000E+05  1.20960000E+05  1.20960000E+05  1.20960000E+05  1.20960000E+05  1.20960000E+05  2.59200000E+05  1.20960000E+05  2.59200000E+05  2.59200000E+05  2.59200000E+05  2.59200000E+05  2.59200000E+05  1.20960000E+05
    2.59200000E+05  2.59200000E+05  2.59200000E+05  2.59200000E+05  2.59200000E+05  2.59200000E+05  2.59200000E+05  2.59200000E+05  2.59200000E+05  2.59200000E+05  2.59200000E+05  2.59200000E+05  2.59200000E+05  2.59200000E+05  2.59200000E+05  1.20960000E+05  2.59200000E+05  2.59200000E+05  2.59200000E+05  2.59200000E+05
    2.59200000E+05  2.59200000E+05  2.59200000E+05  2.59200000E+05  2.59200000E+05  2.59200000E+05  2.59200000E+05  2.59200000E+05  2.59200000E+05  2.59200000E+05  2.59200000E+05  2.59200000E+05  2.59200000E+05  2.59200000E+05  1.20960000E+05  1.20960000E+05  2.59200000E+05  2.59200000E+05  2.59200000E+05  2.59200000E+05
    2.59200000E+05  1.20960000E+05  2.59200000E+05  2.59200000E+05  2.59200000E+05  2.59200000E+05  2.59200000E+05  2.59200000E+05  2.59200000E+05  2.59200000E+05  2.59200000E+05  2.59200000E+05  2.59200000E+05  2.59200000E+05  2.59200000E+05  2.59200000E+05  2.59200000E+05  2.59200000E+05  2.59200000E+05  2.59200000E+05
    2.59200000E+05  2.59200000E+05  2.59200000E+05  2.59200000E+05  2.59200000E+05  2.59200000E+05  2.59200000E+05  2.59200000E+05  2.59200000E+05  2.59200000E+05  2.59200000E+05  2.59200000E+05  2.59200000E+05  2.59200000E+05  2.59200000E+05  2.59200000E+05  2.59200000E+05  2.59200000E+05  2.59200000E+05  2.59200000E+05
    2.59200000E+05  2.59200000E+05  2.59200000E+05  2.59200000E+05  2.59200000E+05  2.59200000E+05  2.59200000E+05  2.59200000E+05  1.20960000E+05  2.59200000E+05  2.59200000E+05  2.59200000E+05  2.59200000E+05  2.59200000E+05  2.59200000E+05  2.59200000E+05  2.59200000E+05  2.59200000E+05  2.59200000E+05  2.59200000E+05
    2.59200000E+05  1.20960000E+05  2.59200000E+05  2.59200000E+05  2.59200000E+05  2.59200000E+05  2.59200000E+05  2.59200000E+05  2.59200000E+05  1.20960000E+05  1.20960000E+05  1.20960000E+05  1.20960000E+05  1.20960000E+05  2.59200000E+05  2.59200000E+05  2.59200000E+05  1.20960000E+05  1.20960000E+05  1.20960000E+05
    1.20960000E+05  1.20960000E+05  1.20960000E+05  1.20960000E+05  2.59200000E+05  2.59200000E+05  2.59200000E+05  2.59200000E+05  2.59200000E+05  2.59200000E+05  2.59200000E+05  2.59200000E+05  2.59200000E+05  2.59200000E+05  2.59200000E+05  2.59200000E+05  2.59200000E+05  2.59200000E+05  2.59200000E+05  2.59200000E+05
    2.59200000E+05  2.59200000E+05  2.59200000E+05  2.59200000E+05  2.59200000E+05  2.59200000E+05  2.59200000E+05  2.59200000E+05  2.59200000E+05  2.59200000E+05  2.59200000E+05  2.59200000E+05  2.59200000E+05  2.59200000E+05  2.59200000E+05  2.59200000E+05  2.59200000E+05  2.59200000E+05  2.59200000E+05  1.20960000E+05
    1.20960000E+05  1.20960000E+05  1.20960000E+05  1.20960000E+05  2.59200000E+05  2.59200000E+05  1.20960000E+05  1.20960000E+05  2.59200000E+05  2.59200000E+05  1.20960000E+05  1.20960000E+05  2.59200000E+05  2.59200000E+05  2.59200000E+05  2.59200000E+05  2.59200000E+05  2.59200000E+05  2.59200000E+05  2.59200000E+05
    2.59200000E+05  2.59200000E+05  2.59200000E+05  2.59200000E+05  2.59200000E+05  2.59200000E+05  2.59200000E+05  2.59200000E+05  2.59200000E+05  2.59200000E+05  1.20960000E+05  1.20960000E+05  2.59200000E+05  2.59200000E+05  2.59200000E+05  2.59200000E+05  2.59200000E+05  2.59200000E+05  2.59200000E+05  2.59200000E+05
    2.59200000E+05  2.59200000E+05  2.59200000E+05  2.59200000E+05  1.20960000E+05  1.20960000E+05  2.59200000E+05  2.59200000E+05  1.20960000E+05  1.20960000E+05  1.20960000E+05  1.20960000E+05  2.59200000E+05  2.59200000E+05  2.59200000E+05  2.59200000E+05  2.59200000E+05  2.59200000E+05  2.59200000E+05  2.59200000E+05
    2.59200000E+05  2.59200000E+05  2.59200000E+05  2.59200000E+05  2.59200000E+05  2.59200000E+05  2.59200000E+05  1.20960000E+05  2.59200000E+05  2.59200000E+05  2.59200000E+05  2.59200000E+05  2.59200000E+05  1.20960000E+05  2.59200000E+05  2.59200000E+05  2.59200000E+05  1.20960000E+05  2.59200000E+05  2.59200000E+05
    2.59200000E+05  2.59200000E+05  2.59200000E+05  2.59200000E+05  2.59200000E+05  2.59200000E+05  2.59200000E+05  2.59200000E+05  2.59200000E+05  2.59200000E+05  2.59200000E+05  2.59200000E+05  2.59200000E+05  2.59200000E+05  2.59200000E+05  2.59200000E+05  2.59200000E+05  2.59200000E+05  2.59200000E+05  2.59200000E+05
    2.59200000E+05  2.59200000E+05  2.59200000E+05  2.59200000E+05  2.59200000E+05  2.59200000E+05  2.59200000E+05  2.59200000E+05  2.59200000E+05  2.59200000E+05  2.59200000E+05  2.59200000E+05  2.59200000E+05  2.59200000E+05  2.59200000E+05  2.59200000E+05  2.59200000E+05  1.20960000E+05  1.20960000E+05  1.20960000E+05
    2.59200000E+05  2.59200000E+05  2.59200000E+05  2.59200000E+05  2.59200000E+05  2.59200000E+05  2.59200000E+05  2.59200000E+05  2.59200000E+05  2.59200000E+05  2.59200000E+05  2.59200000E+05  1.20960000E+05  1.20960000E+05  2.59200000E+05  2.59200000E+05  2.59200000E+05  2.59200000E+05  2.59200000E+05  2.59200000E+05
    2.59200000E+05  2.59200000E+05  2.59200000E+05  2.59200000E+05  2.59200000E+05  2.59200000E+05  2.59200000E+05  1.20960000E+05  1.20960000E+05  2.59200000E+05  2.59200000E+05  2.59200000E+05  2.59200000E+05  2.59200000E+05  2.59200000E+05  2.59200000E+05  1.20960000E+05  1.20960000E+05  2.59200000E+05  2.59200000E+05
    2.59200000E+05  2.59200000E+05  2.59200000E+05  2.59200000E+05  2.59200000E+05  2.59200000E+05  2.59200000E+05  2.59200000E+05  2.59200000E+05  2.59200000E+05  2.59200000E+05  2.59200000E+05  2.59200000E+05  2.59200000E+05  2.59200000E+05  2.59200000E+05  2.59200000E+05  2.59200000E+05  1.20960000E+05  2.59200000E+05
    2.59200000E+05  1.20960000E+05  1.20960000E+05  1.20960000E+05  2.59200000E+05  1.20960000E+05  2.59200000E+05  2.59200000E+05  2.59200000E+05  2.59200000E+05  2.59200000E+05  1.20960000E+05  2.59200000E+05  2.59200000E+05  2.59200000E+05  2.59200000E+05  2.59200000E+05  2.59200000E+05  2.59200000E+05  2.59200000E+05
    2.59200000E+05  2.59200000E+05  2.59200000E+05  2.59200000E+05  2.59200000E+05  2.59200000E+05  2.59200000E+05  2.59200000E+05  2.59200000E+05  2.59200000E+05  2.59200000E+05  2.59200000E+05  2.59200000E+05  2.59200000E+05  2.59200000E+05  2.59200000E+05  2.59200000E+05  2.59200000E+05  2.59200000E+05  1.20960000E+05
    1.20960000E+05  2.59200000E+05  2.59200000E+05  2.59200000E+05  2.59200000E+05  2.59200000E+05  2.59200000E+05  2.59200000E+05  2.59200000E+05  2.59200000E+05  2.59200000E+05  2.59200000E+05  2.59200000E+05  2.59200000E+05  2.59200000E+05  2.59200000E+05  2.59200000E+05  2.59200000E+05  2.59200000E+05  2.59200000E+05
    2.59200000E+05  2.59200000E+05  2.59200000E+05  2.59200000E+05  2.59200000E+05  2.59200000E+05  2.59200000E+05  2.59200000E+05  2.59200000E+05  2.59200000E+05  2.59200000E+05  2.59200000E+05  2.59200000E+05  2.59200000E+05  2.59200000E+05  2.59200000E+05  2.59200000E+05  2.59200000E+05  2.59200000E+05  2.59200000E+05
    2.59200000E+05  2.59200000E+05  2.59200000E+05  2.59200000E+05  2.59200000E+05  2.59200000E+05  2.59200000E+05  2.59200000E+05  2.59200000E+05  2.59200000E+05  2.59200000E+05  2.59200000E+05  2.59200000E+05  2.59200000E+05  2.59200000E+05  2.59200000E+05  2.59200000E+05  2.59200000E+05  2.59200000E+05  2.59200000E+05
    2.59200000E+05  2.59200000E+05  2.59200000E+05  2.59200000E+05  2.59200000E+05  2.59200000E+05  2.59200000E+05  2.59200000E+05  2.59200000E+05  2.59200000E+05  2.59200000E+05  2.59200000E+05  2.59200000E+05  2.59200000E+05  2.59200000E+05  2.59200000E+05  2.59200000E+05  2.59200000E+05  2.59200000E+05  2.59200000E+05
    2.59200000E+05  2.59200000E+05  2.59200000E+05  2.59200000E+05  2.59200000E+05  2.59200000E+05  2.59200000E+05  2.59200000E+05  2.59200000E+05  2.59200000E+05  2.59200000E+05  2.59200000E+05  2.59200000E+05  2.59200000E+05  2.59200000E+05  1.20960000E+05  2.59200000E+05  2.59200000E+05  2.59200000E+05  2.59200000E+05
    2.59200000E+05  2.59200000E+05  2.59200000E+05  2.59200000E+05  2.59200000E+05  2.59200000E+05  2.59200000E+05  2.59200000E+05  2.59200000E+05  2.59200000E+05  2.59200000E+05  2.59200000E+05  2.59200000E+05  2.59200000E+05  2.59200000E+05  2.59200000E+05  2.59200000E+05  1.20960000E+05  1.20960000E+05  2.59200000E+05
    2.59200000E+05  2.59200000E+05  2.59200000E+05  2.59200000E+05  2.59200000E+05  2.59200000E+05  2.59200000E+05  2.59200000E+05  2.59200000E+05  2.59200000E+05  2.59200000E+05  2.59200000E+05  2.59200000E+05  2.59200000E+05  2.59200000E+05  2.59200000E+05  2.59200000E+05  2.59200000E+05  2.59200000E+05  2.59200000E+05
    2.59200000E+05  2.59200000E+05  2.59200000E+05  2.59200000E+05  2.59200000E+05  2.59200000E+05  2.59200000E+05  2.59200000E+05  2.59200000E+05  2.59200000E+05  2.59200000E+05  2.59200000E+05  2.59200000E+05  2.59200000E+05  2.59200000E+05  2.59200000E+05  2.59200000E+05  2.59200000E+05  2.59200000E+05  2.59200000E+05
    2.59200000E+05  2.59200000E+05  2.59200000E+05  2.59200000E+05  2.59200000E+05  2.59200000E+05  2.59200000E+05  2.59200000E+05  2.59200000E+05  2.59200000E+05  2.59200000E+05  2.59200000E+05  2.59200000E+05  2.59200000E+05  2.59200000E+05  2.59200000E+05  2.59200000E+05  2.59200000E+05  2.59200000E+05  2.59200000E+05
    2.59200000E+05  2.59200000E+05  2.59200000E+05  2.59200000E+05  2.59200000E+05  2.59200000E+05  2.59200000E+05  2.59200000E+05  2.59200000E+05  2.59200000E+05  2.59200000E+05  2.59200000E+05  2.59200000E+05  2.59200000E+05  2.59200000E+05  2.59200000E+05  2.59200000E+05  2.59200000E+05  2.59200000E+05  2.59200000E+05
    2.59200000E+05  2.59200000E+05  2.59200000E+05  2.59200000E+05  2.59200000E+05  2.59200000E+05  2.59200000E+05  2.59200000E+05  2.59200000E+05  2.59200000E+05  2.59200000E+05  2.59200000E+05  2.59200000E+05  2.59200000E+05  1.20960000E+05  2.59200000E+05  2.59200000E+05  2.59200000E+05  2.59200000E+05  2.59200000E+05
    2.59200000E+05  2.59200000E+05  2.59200000E+05  2.59200000E+05  2.59200000E+05  2.59200000E+05  2.59200000E+05  2.59200000E+05  2.59200000E+05  2.59200000E+05  2.59200000E+05  2.59200000E+05  2.59200000E+05  2.59200000E+05  2.59200000E+05  2.59200000E+05  2.59200000E+05  2.59200000E+05  2.59200000E+05  1.20960000E+05
    2.59200000E+05  2.59200000E+05  2.59200000E+05  2.59200000E+05  2.59200000E+05  2.59200000E+05  2.59200000E+05  2.59200000E+05  2.59200000E+05  2.59200000E+05  2.59200000E+05  2.59200000E+05  2.59200000E+05  2.59200000E+05  2.59200000E+05  2.59200000E+05  2.59200000E+05  2.59200000E+05  2.59200000E+05  2.59200000E+05
    2.59200000E+05  2.59200000E+05  2.59200000E+05  2.59200000E+05  2.59200000E+05  2.59200000E+05  2.59200000E+05  2.59200000E+05  2.59200000E+05  2.59200000E+05  2.59200000E+05  1.20960000E+05  2.59200000E+05  2.59200000E+05  2.59200000E+05  2.59200000E+05  2.59200000E+05  2.59200000E+05  2.59200000E+05  2.59200000E+05
    2.59200000E+05  2.59200000E+05  2.59200000E+05  2.59200000E+05  2.59200000E+05  2.59200000E+05  2.59200000E+05  2.59200000E+05  2.59200000E+05  2.59200000E+05  2.59200000E+05  2.59200000E+05  2.59200000E+05  2.59200000E+05  2.59200000E+05  2.59200000E+05  2.59200000E+05  2.59200000E+05  2.59200000E+05  2.59200000E+05
    2.59200000E+05  2.59200000E+05  2.59200000E+05  1.20960000E+05  2.59200000E+05  2.59200000E+05  2.59200000E+05  2.59200000E+05  2.59200000E+05  1.20960000E+05  2.59200000E+05  2.59200000E+05  2.59200000E+05  2.59200000E+05  2.59200000E+05  2.59200000E+05  2.59200000E+05  2.59200000E+05  2.59200000E+05  2.59200000E+05
    2.59200000E+05  2.59200000E+05  2.59200000E+05  2.59200000E+05  2.59200000E+05  2.59200000E+05  1.20960000E+05  2.59200000E+05  2.59200000E+05  2.59200000E+05  2.59200000E+05  2.59200000E+05  2.59200000E+05  2.59200000E+05  2.59200000E+05  2.59200000E+05  2.59200000E+05  2.59200000E+05  2.59200000E+05  2.59200000E+05
    2.59200000E+05  2.59200000E+05  2.59200000E+05  1.20960000E+05  2.59200000E+05  2.59200000E+05  2.59200000E+05  2.59200000E+05  2.59200000E+05  2.59200000E+05  2.59200000E+05  1.20960000E+05  2.59200000E+05  2.59200000E+05  2.59200000E+05  2.59200000E+05  2.59200000E+05  2.59200000E+05  2.59200000E+05  2.59200000E+05
    2.59200000E+05  2.59200000E+05  2.59200000E+05  2.59200000E+05  2.59200000E+05  2.59200000E+05  2.59200000E+05  2.59200000E+05  2.59200000E+05  2.59200000E+05  1.20960000E+05  1.20960000E+05  2.59200000E+05  2.59200000E+05  1.20960000E+05  1.20960000E+05  1.20960000E+05  1.20960000E+05  1.20960000E+05  2.59200000E+05
    2.59200000E+05  2.59200000E+05  2.59200000E+05  2.59200000E+05  2.59200000E+05  2.59200000E+05  2.59200000E+05  2.59200000E+05  2.59200000E+05  2.59200000E+05  2.59200000E+05  2.59200000E+05  2.59200000E+05  2.59200000E+05  2.59200000E+05  2.59200000E+05  2.59200000E+05  2.59200000E+05  2.59200000E+05  2.59200000E+05