# File generated by Flopy version 3.7.0 on 05/31/2024 at 13:13:19.
BEGIN options
END options

BEGIN sources
  WEL  AUX  TEMPERATURE
END sources

