# File generated by Flopy version 3.7.0 on 05/31/2024 at 13:13:15.
BEGIN options
END options

BEGIN griddata
  iconvert
    CONSTANT  0
  ss
    CONSTANT       0.00100000
  sy
    INTERNAL  FACTOR  1.0
         0.01000000       0.01000000       0.10000000       0.10000000       0.01000000       0.10000000       0.10000000       0.10000000       0.10000000       0.01000000       0.10000000       0.01000000       0.01000000       0.10000000       0.10000000       0.01000000       0.01000000       0.10000000       0.01000000       0.10000000
         0.01000000       0.01000000       0.10000000       0.10000000       0.10000000       0.01000000       0.10000000       0.10000000       0.01000000       0.10000000       0.10000000       0.10000000       0.10000000       0.10000000       0.10000000       0.10000000       0.10000000       0.01000000       0.01000000       0.10000000
         0.10000000       0.01000000       0.10000000       0.10000000       0.01000000       0.01000000       0.10000000       0.10000000       0.10000000       0.10000000       0.10000000       0.10000000       0.01000000       0.10000000       0.01000000       0.10000000       0.01000000       0.10000000       0.10000000       0.10000000
         0.10000000       0.10000000       0.10000000       0.10000000       0.10000000       0.10000000       0.10000000       0.10000000       0.10000000       0.10000000       0.10000000       0.01000000       0.10000000       0.10000000       0.10000000       0.10000000       0.10000000       0.10000000       0.10000000       0.10000000
         0.10000000       0.01000000       0.01000000       0.10000000       0.10000000       0.10000000       0.10000000       0.10000000       0.10000000       0.10000000       0.10000000       0.10000000       0.10000000       0.10000000       0.01000000       0.01000000       0.10000000       0.10000000       0.10000000       0.10000000
         0.10000000       0.10000000       0.10000000       0.10000000       0.10000000       0.01000000       0.01000000       0.01000000       0.10000000       0.01000000       0.01000000       0.01000000       0.01000000       0.01000000       0.01000000       0.01000000       0.01000000       0.01000000       0.01000000       0.01000000
         0.10000000       0.01000000       0.01000000       0.01000000       0.01000000       0.01000000       0.01000000       0.01000000       0.01000000       0.01000000       0.01000000       0.01000000       0.10000000       0.01000000       0.01000000       0.01000000       0.01000000       0.01000000       0.01000000       0.01000000
         0.01000000       0.01000000       0.01000000       0.01000000       0.01000000       0.01000000       0.01000000       0.01000000       0.01000000       0.01000000       0.01000000       0.01000000       0.01000000       0.01000000       0.01000000       0.01000000       0.01000000       0.01000000       0.01000000       0.01000000
         0.01000000       0.01000000       0.01000000       0.01000000       0.01000000       0.01000000       0.01000000       0.01000000       0.01000000       0.01000000       0.01000000       0.01000000       0.01000000       0.01000000       0.01000000       0.01000000       0.01000000       0.01000000       0.01000000       0.01000000
         0.01000000       0.01000000       0.01000000       0.01000000       0.01000000       0.01000000       0.01000000       0.01000000       0.01000000       0.01000000       0.01000000       0.01000000       0.01000000       0.01000000       0.01000000       0.01000000       0.01000000       0.01000000       0.01000000       0.01000000
         0.01000000       0.01000000       0.01000000       0.01000000       0.01000000       0.01000000       0.01000000       0.01000000       0.01000000       0.01000000       0.01000000       0.01000000       0.01000000       0.01000000       0.01000000       0.01000000       0.01000000       0.01000000       0.01000000       0.01000000
         0.01000000       0.01000000       0.01000000       0.01000000       0.01000000       0.01000000       0.01000000       0.01000000       0.01000000       0.01000000       0.01000000       0.01000000       0.01000000       0.01000000       0.01000000       0.01000000       0.01000000       0.01000000       0.01000000       0.01000000
         0.01000000       0.01000000       0.01000000       0.01000000       0.01000000       0.01000000       0.01000000       0.10000000       0.01000000       0.01000000       0.01000000       0.01000000       0.01000000       0.01000000       0.01000000       0.01000000       0.01000000       0.01000000       0.01000000       0.01000000
         0.01000000       0.01000000       0.01000000       0.01000000       0.01000000       0.01000000       0.01000000       0.01000000       0.01000000       0.01000000       0.01000000       0.01000000       0.01000000       0.01000000       0.01000000       0.01000000       0.01000000       0.01000000       0.01000000       0.01000000
         0.01000000       0.01000000       0.01000000       0.01000000       0.01000000       0.01000000       0.01000000       0.01000000       0.01000000       0.01000000       0.01000000       0.01000000       0.01000000       0.01000000       0.01000000       0.01000000       0.01000000       0.01000000       0.01000000       0.01000000
         0.01000000       0.01000000       0.01000000       0.01000000       0.01000000       0.01000000       0.01000000       0.01000000       0.01000000       0.01000000       0.01000000       0.01000000       0.01000000       0.01000000       0.01000000       0.01000000       0.01000000       0.01000000       0.01000000       0.01000000
         0.01000000       0.01000000       0.01000000       0.01000000       0.01000000       0.01000000       0.01000000       0.01000000       0.01000000       0.01000000       0.01000000       0.01000000       0.01000000       0.01000000       0.01000000       0.01000000       0.01000000       0.01000000       0.01000000       0.01000000
         0.01000000       0.01000000       0.01000000       0.01000000       0.01000000       0.01000000       0.01000000       0.01000000       0.01000000       0.01000000       0.01000000       0.01000000       0.01000000       0.01000000       0.01000000       0.01000000       0.01000000       0.01000000       0.01000000       0.01000000
         0.01000000       0.01000000       0.01000000       0.01000000       0.01000000       0.01000000       0.01000000       0.01000000       0.01000000       0.01000000       0.01000000       0.01000000       0.01000000       0.01000000       0.01000000       0.01000000       0.10000000       0.01000000       0.01000000       0.01000000
         0.01000000       0.01000000       0.01000000       0.01000000       0.01000000       0.01000000       0.01000000       0.01000000       0.01000000       0.01000000       0.01000000       0.01000000       0.01000000       0.01000000       0.01000000       0.01000000       0.01000000       0.01000000       0.01000000       0.01000000
         0.01000000       0.01000000       0.01000000       0.01000000       0.01000000       0.01000000       0.10000000       0.01000000       0.01000000       0.01000000       0.01000000       0.01000000       0.01000000       0.01000000       0.01000000       0.01000000       0.01000000       0.01000000       0.01000000       0.01000000
         0.01000000       0.01000000       0.01000000       0.01000000       0.01000000       0.10000000       0.01000000       0.01000000       0.01000000       0.01000000       0.01000000       0.01000000       0.01000000       0.01000000       0.01000000       0.01000000       0.01000000       0.01000000       0.01000000       0.01000000
         0.01000000       0.01000000       0.01000000       0.01000000       0.01000000       0.10000000       0.01000000       0.01000000       0.01000000       0.01000000       0.01000000       0.01000000       0.01000000       0.01000000       0.01000000       0.01000000       0.01000000       0.01000000       0.01000000       0.01000000
         0.01000000       0.01000000       0.01000000       0.01000000       0.01000000       0.01000000       0.01000000       0.01000000       0.01000000       0.01000000       0.01000000       0.01000000       0.01000000       0.01000000       0.01000000       0.01000000       0.01000000       0.01000000       0.01000000       0.01000000
         0.01000000       0.01000000       0.01000000       0.01000000       0.01000000       0.01000000       0.01000000       0.01000000       0.01000000       0.01000000       0.01000000       0.01000000       0.01000000       0.01000000       0.01000000       0.01000000       0.01000000       0.01000000       0.01000000       0.01000000
         0.01000000       0.01000000       0.01000000       0.01000000       0.01000000       0.01000000       0.01000000       0.10000000       0.01000000       0.01000000       0.01000000       0.01000000       0.01000000       0.01000000       0.10000000       0.01000000       0.01000000       0.01000000       0.01000000       0.01000000
         0.01000000       0.01000000       0.01000000       0.10000000       0.01000000       0.01000000       0.01000000       0.01000000       0.01000000       0.01000000       0.01000000       0.01000000       0.01000000       0.01000000       0.01000000       0.01000000       0.01000000       0.01000000       0.01000000       0.01000000
         0.01000000       0.01000000       0.01000000       0.01000000       0.01000000       0.01000000       0.01000000       0.01000000       0.01000000       0.01000000       0.01000000       0.01000000       0.01000000       0.10000000       0.01000000       0.10000000       0.01000000       0.01000000       0.01000000       0.01000000
         0.01000000       0.01000000       0.01000000       0.01000000       0.01000000       0.01000000       0.01000000       0.01000000       0.01000000       0.10000000       0.01000000       0.01000000       0.01000000       0.01000000       0.01000000       0.01000000       0.01000000       0.01000000       0.01000000       0.01000000
         0.01000000       0.01000000       0.01000000       0.01000000       0.01000000       0.01000000       0.01000000       0.01000000       0.01000000       0.01000000       0.01000000       0.10000000       0.10000000       0.10000000       0.10000000       0.10000000       0.01000000       0.01000000       0.01000000       0.01000000
         0.01000000       0.01000000       0.01000000       0.01000000       0.10000000       0.10000000       0.01000000       0.01000000       0.01000000       0.01000000       0.01000000       0.01000000       0.01000000       0.10000000       0.01000000       0.01000000       0.01000000       0.01000000       0.01000000       0.01000000
         0.01000000       0.01000000       0.01000000       0.01000000       0.01000000       0.01000000       0.01000000       0.01000000       0.01000000       0.01000000       0.10000000       0.10000000       0.01000000       0.01000000       0.10000000       0.10000000       0.01000000       0.01000000       0.01000000       0.01000000
         0.01000000       0.01000000       0.01000000       0.01000000       0.01000000       0.01000000       0.01000000       0.01000000       0.01000000       0.01000000       0.01000000       0.01000000       0.01000000       0.01000000       0.01000000       0.01000000       0.01000000       0.01000000       0.01000000       0.10000000
         0.01000000       0.01000000       0.01000000       0.01000000       0.01000000       0.01000000       0.01000000       0.01000000       0.01000000       0.01000000       0.10000000       0.10000000       0.10000000       0.10000000       0.01000000       0.01000000       0.01000000       0.01000000       0.01000000       0.01000000
         0.01000000       0.01000000       0.01000000       0.01000000       0.01000000       0.01000000       0.01000000       0.01000000       0.01000000       0.01000000       0.01000000       0.01000000       0.01000000       0.01000000       0.01000000       0.01000000       0.01000000       0.01000000       0.01000000       0.01000000
         0.01000000       0.01000000       0.01000000       0.01000000       0.01000000       0.01000000       0.01000000       0.01000000       0.01000000       0.01000000       0.01000000       0.01000000       0.01000000       0.01000000       0.01000000       0.01000000       0.01000000       0.01000000       0.01000000       0.01000000
         0.01000000       0.01000000       0.01000000       0.01000000       0.01000000       0.01000000       0.01000000       0.01000000       0.01000000       0.01000000       0.01000000       0.01000000       0.01000000       0.10000000       0.01000000       0.01000000       0.01000000       0.01000000       0.01000000       0.01000000
         0.01000000       0.01000000       0.01000000       0.01000000       0.01000000       0.01000000       0.01000000       0.01000000       0.10000000       0.01000000       0.01000000       0.01000000       0.01000000       0.01000000       0.01000000       0.01000000       0.01000000       0.01000000       0.01000000       0.01000000
         0.01000000       0.01000000       0.01000000       0.01000000       0.01000000       0.01000000       0.01000000       0.01000000       0.01000000       0.01000000       0.01000000       0.01000000       0.01000000       0.01000000       0.01000000       0.01000000       0.01000000       0.01000000       0.01000000       0.01000000
         0.01000000       0.01000000       0.01000000       0.01000000       0.01000000       0.01000000       0.01000000       0.01000000       0.01000000       0.01000000       0.01000000       0.01000000       0.01000000       0.01000000       0.01000000       0.01000000       0.10000000       0.01000000       0.01000000       0.01000000
         0.01000000       0.01000000       0.01000000       0.10000000       0.01000000       0.01000000       0.01000000       0.01000000       0.01000000       0.10000000       0.01000000       0.01000000       0.01000000       0.01000000       0.01000000       0.01000000       0.01000000       0.01000000       0.01000000       0.01000000
         0.01000000       0.01000000       0.01000000       0.01000000       0.01000000       0.01000000       0.01000000       0.01000000       0.01000000       0.01000000       0.01000000       0.01000000       0.01000000       0.01000000       0.01000000       0.01000000       0.01000000       0.01000000       0.01000000       0.01000000
         0.01000000       0.01000000       0.01000000       0.01000000       0.01000000       0.01000000       0.01000000       0.01000000       0.01000000       0.01000000       0.01000000       0.01000000       0.01000000       0.01000000       0.01000000       0.01000000       0.01000000       0.01000000       0.01000000       0.01000000
         0.01000000       0.01000000       0.01000000       0.01000000       0.01000000       0.01000000       0.01000000       0.01000000       0.01000000       0.01000000       0.01000000       0.01000000       0.01000000       0.10000000       0.01000000       0.01000000       0.01000000       0.10000000       0.01000000       0.01000000
         0.01000000       0.01000000       0.01000000       0.01000000       0.01000000       0.01000000       0.01000000       0.01000000       0.01000000       0.01000000       0.01000000       0.01000000       0.01000000       0.01000000       0.01000000       0.01000000       0.01000000       0.01000000       0.01000000       0.10000000
         0.10000000       0.10000000       0.10000000       0.10000000       0.01000000       0.01000000       0.01000000       0.01000000       0.01000000       0.01000000       0.01000000       0.01000000       0.01000000       0.01000000       0.01000000       0.01000000       0.01000000       0.01000000       0.01000000       0.01000000
         0.01000000       0.10000000       0.01000000       0.01000000       0.10000000       0.10000000       0.01000000       0.01000000       0.01000000       0.01000000       0.01000000       0.01000000       0.01000000       0.01000000       0.10000000       0.01000000       0.01000000       0.01000000       0.01000000       0.01000000
         0.01000000       0.01000000       0.10000000       0.01000000       0.01000000       0.01000000       0.01000000       0.01000000       0.01000000       0.01000000       0.01000000       0.01000000       0.01000000       0.01000000       0.01000000       0.01000000       0.01000000       0.01000000       0.01000000       0.01000000
         0.01000000       0.01000000       0.01000000       0.01000000       0.01000000       0.01000000       0.01000000       0.01000000       0.01000000       0.01000000       0.01000000       0.01000000       0.01000000       0.01000000       0.01000000       0.01000000       0.01000000       0.01000000       0.01000000       0.01000000
         0.01000000       0.01000000       0.01000000       0.01000000       0.01000000       0.01000000       0.01000000       0.01000000       0.01000000       0.01000000       0.01000000       0.01000000       0.01000000       0.01000000       0.01000000       0.01000000       0.01000000       0.01000000       0.01000000       0.01000000
         0.10000000       0.01000000       0.01000000       0.01000000       0.01000000       0.01000000       0.01000000       0.01000000       0.01000000       0.01000000       0.01000000       0.01000000       0.01000000       0.01000000       0.01000000       0.01000000       0.01000000       0.01000000       0.01000000       0.01000000
         0.01000000       0.01000000       0.01000000       0.01000000       0.01000000       0.01000000       0.01000000       0.01000000       0.01000000       0.01000000       0.01000000       0.01000000       0.01000000       0.01000000       0.01000000       0.10000000       0.01000000       0.01000000       0.10000000       0.01000000
         0.01000000       0.01000000       0.01000000       0.10000000       0.01000000       0.01000000       0.01000000       0.10000000       0.10000000       0.10000000       0.10000000       0.10000000       0.01000000       0.10000000       0.01000000       0.01000000       0.01000000       0.01000000       0.01000000       0.10000000
         0.01000000       0.01000000       0.01000000       0.01000000       0.01000000       0.01000000       0.01000000       0.01000000       0.01000000       0.01000000       0.01000000       0.01000000       0.01000000       0.01000000       0.01000000       0.10000000       0.01000000       0.01000000       0.01000000       0.01000000
         0.01000000       0.01000000       0.01000000       0.01000000       0.01000000       0.01000000       0.01000000       0.01000000       0.01000000       0.01000000       0.01000000       0.01000000       0.01000000       0.01000000       0.10000000       0.10000000       0.01000000       0.01000000       0.01000000       0.01000000
         0.01000000       0.10000000       0.01000000       0.01000000       0.01000000       0.01000000       0.01000000       0.01000000       0.01000000       0.01000000       0.01000000       0.01000000       0.01000000       0.01000000       0.01000000       0.01000000       0.01000000       0.01000000       0.01000000       0.01000000
         0.01000000       0.01000000       0.01000000       0.01000000       0.01000000       0.01000000       0.01000000       0.01000000       0.01000000       0.01000000       0.01000000       0.01000000       0.01000000       0.01000000       0.01000000       0.01000000       0.01000000       0.01000000       0.01000000       0.01000000
         0.01000000       0.01000000       0.01000000       0.01000000       0.01000000       0.01000000       0.01000000       0.01000000       0.10000000       0.01000000       0.01000000       0.01000000       0.01000000       0.01000000       0.01000000       0.01000000       0.01000000       0.01000000       0.01000000       0.01000000
         0.01000000       0.10000000       0.01000000       0.01000000       0.01000000       0.01000000       0.01000000       0.01000000       0.01000000       0.10000000       0.10000000       0.10000000       0.10000000       0.10000000       0.01000000       0.01000000       0.01000000       0.10000000       0.10000000       0.10000000
         0.10000000       0.10000000       0.10000000       0.10000000       0.01000000       0.01000000       0.01000000       0.01000000       0.01000000       0.01000000       0.01000000       0.01000000       0.01000000       0.01000000       0.01000000       0.01000000       0.01000000       0.01000000       0.01000000       0.01000000
         0.01000000       0.01000000       0.01000000       0.01000000       0.01000000       0.01000000       0.01000000       0.01000000       0.01000000       0.01000000       0.01000000       0.01000000       0.01000000       0.01000000       0.01000000       0.01000000       0.01000000       0.01000000       0.01000000       0.10000000
         0.10000000       0.10000000       0.10000000       0.10000000       0.01000000       0.01000000       0.10000000       0.10000000       0.01000000       0.01000000       0.10000000       0.10000000       0.01000000       0.01000000       0.01000000       0.01000000       0.01000000       0.01000000       0.01000000       0.01000000
         0.01000000       0.01000000       0.01000000       0.01000000       0.01000000       0.01000000       0.01000000       0.01000000       0.01000000       0.01000000       0.10000000       0.10000000       0.01000000       0.01000000       0.01000000       0.01000000       0.01000000       0.01000000       0.01000000       0.01000000
         0.01000000       0.01000000       0.01000000       0.01000000       0.10000000       0.10000000       0.01000000       0.01000000       0.10000000       0.10000000       0.10000000       0.10000000       0.01000000       0.01000000       0.01000000       0.01000000       0.01000000       0.01000000       0.01000000       0.01000000
         0.01000000       0.01000000       0.01000000       0.01000000       0.01000000       0.01000000       0.01000000       0.10000000       0.01000000       0.01000000       0.01000000       0.01000000       0.01000000       0.10000000       0.01000000       0.01000000       0.01000000       0.10000000       0.01000000       0.01000000
         0.01000000       0.01000000       0.01000000       0.01000000       0.01000000       0.01000000       0.01000000       0.01000000       0.01000000       0.01000000       0.01000000       0.01000000       0.01000000       0.01000000       0.01000000       0.01000000       0.01000000       0.01000000       0.01000000       0.01000000
         0.01000000       0.01000000       0.01000000       0.01000000       0.01000000       0.01000000       0.01000000       0.01000000       0.01000000       0.01000000       0.01000000       0.01000000       0.01000000       0.01000000       0.01000000       0.01000000       0.01000000       0.10000000       0.10000000       0.10000000
         0.01000000       0.01000000       0.01000000       0.01000000       0.01000000       0.01000000       0.01000000       0.01000000       0.01000000       0.01000000       0.01000000       0.01000000       0.10000000       0.10000000       0.01000000       0.01000000       0.01000000       0.01000000       0.01000000       0.01000000
         0.01000000       0.01000000       0.01000000       0.01000000       0.01000000       0.01000000       0.01000000       0.10000000       0.10000000       0.01000000       0.01000000       0.01000000       0.01000000       0.01000000       0.01000000       0.01000000       0.10000000       0.10000000       0.01000000       0.01000000
         0.01000000       0.01000000       0.01000000       0.01000000       0.01000000       0.01000000       0.01000000       0.01000000       0.01000000       0.01000000       0.01000000       0.01000000       0.01000000       0.01000000       0.01000000       0.01000000       0.01000000       0.01000000       0.10000000       0.01000000
         0.01000000       0.10000000       0.10000000       0.10000000       0.01000000       0.10000000       0.01000000       0.01000000       0.01000000       0.01000000       0.01000000       0.10000000       0.01000000       0.01000000       0.01000000       0.01000000       0.01000000       0.01000000       0.01000000       0.01000000
         0.01000000       0.01000000       0.01000000       0.01000000       0.01000000       0.01000000       0.01000000       0.01000000       0.01000000       0.01000000       0.01000000       0.01000000       0.01000000       0.01000000       0.01000000       0.01000000       0.01000000       0.01000000       0.01000000       0.10000000
         0.10000000       0.01000000       0.01000000       0.01000000       0.01000000       0.01000000       0.01000000       0.01000000       0.01000000       0.01000000       0.01000000       0.01000000       0.01000000       0.01000000       0.01000000       0.01000000       0.01000000       0.01000000       0.01000000       0.01000000
         0.01000000       0.01000000       0.01000000       0.01000000       0.01000000       0.01000000       0.01000000       0.01000000       0.01000000       0.01000000       0.01000000       0.01000000       0.01000000       0.01000000       0.01000000       0.01000000       0.01000000       0.01000000       0.01000000       0.01000000
         0.01000000       0.01000000       0.01000000       0.01000000       0.01000000       0.01000000       0.01000000       0.01000000       0.01000000       0.01000000       0.01000000       0.01000000       0.01000000       0.01000000       0.01000000       0.01000000       0.01000000       0.01000000       0.01000000       0.01000000
         0.01000000       0.01000000       0.01000000       0.01000000       0.01000000       0.01000000       0.01000000       0.01000000       0.01000000       0.01000000       0.01000000       0.01000000       0.01000000       0.01000000       0.01000000       0.01000000       0.01000000       0.01000000       0.01000000       0.01000000
         0.01000000       0.01000000       0.01000000       0.01000000       0.01000000       0.01000000       0.01000000       0.01000000       0.01000000       0.01000000       0.01000000       0.01000000       0.01000000       0.01000000       0.01000000       0.10000000       0.01000000       0.01000000       0.01000000       0.01000000
         0.01000000       0.01000000       0.01000000       0.01000000       0.01000000       0.01000000       0.01000000       0.01000000       0.01000000       0.01000000       0.01000000       0.01000000       0.01000000       0.01000000       0.01000000       0.01000000       0.01000000       0.10000000       0.10000000       0.01000000
         0.01000000       0.01000000       0.01000000       0.01000000       0.01000000       0.01000000       0.01000000       0.01000000       0.01000000       0.01000000       0.01000000       0.01000000       0.01000000       0.01000000       0.01000000       0.01000000       0.01000000       0.01000000       0.01000000       0.01000000
         0.01000000       0.01000000       0.01000000       0.01000000       0.01000000       0.01000000       0.01000000       0.01000000       0.01000000       0.01000000       0.01000000       0.01000000       0.01000000       0.01000000       0.01000000       0.01000000       0.01000000       0.01000000       0.01000000       0.01000000
         0.01000000       0.01000000       0.01000000       0.01000000       0.01000000       0.01000000       0.01000000       0.01000000       0.01000000       0.01000000       0.01000000       0.01000000       0.01000000       0.01000000       0.01000000       0.01000000       0.01000000       0.01000000       0.01000000       0.01000000
         0.01000000       0.01000000       0.01000000       0.01000000       0.01000000       0.01000000       0.01000000       0.01000000       0.01000000       0.01000000       0.01000000       0.01000000       0.01000000       0.01000000       0.01000000       0.01000000       0.01000000       0.01000000       0.01000000       0.01000000
         0.01000000       0.01000000       0.01000000       0.01000000       0.01000000       0.01000000       0.01000000       0.01000000       0.01000000       0.01000000       0.01000000       0.01000000       0.01000000       0.01000000       0.10000000       0.01000000       0.01000000       0.01000000       0.01000000       0.01000000
         0.01000000       0.01000000       0.01000000       0.01000000       0.01000000       0.01000000       0.01000000       0.01000000       0.01000000       0.01000000       0.01000000       0.01000000       0.01000000       0.01000000       0.01000000       0.01000000       0.01000000       0.01000000       0.01000000       0.10000000
         0.01000000       0.01000000       0.01000000       0.01000000       0.01000000       0.01000000       0.01000000       0.01000000       0.01000000       0.01000000       0.01000000       0.01000000       0.01000000       0.01000000       0.01000000       0.01000000       0.01000000       0.01000000       0.01000000       0.01000000
         0.01000000       0.01000000       0.01000000       0.01000000       0.01000000       0.01000000       0.01000000       0.01000000       0.01000000       0.01000000       0.01000000       0.10000000       0.01000000       0.01000000       0.01000000       0.01000000       0.01000000       0.01000000       0.01000000       0.01000000