# File generated by Flopy version 3.7.0 on 05/31/2024 at 13:13:16.
BEGIN options
  auxiliary  TEMPERATURE
  SAVE_FLOWS
END options

BEGIN dimensions
  MAXBOUND  32
END dimensions

BEGIN period  1
  1 4843 0.00000000E+00 0.00000000E+00
  1 4844 0.00000000E+00 0.00000000E+00
  1 4845 0.00000000E+00 0.00000000E+00
  1 4846 0.00000000E+00 0.00000000E+00
  1 4847 0.00000000E+00 0.00000000E+00
  1 4848 0.00000000E+00 0.00000000E+00
  1 4849 0.00000000E+00 0.00000000E+00
  1 4850 0.00000000E+00 0.00000000E+00
  1 4851 0.00000000E+00 0.00000000E+00
  1 4852 0.00000000E+00 0.00000000E+00
  1 4853 0.00000000E+00 0.00000000E+00
  1 4854 0.00000000E+00 0.00000000E+00
  1 4855 0.00000000E+00 0.00000000E+00
  1 4856 0.00000000E+00 0.00000000E+00
  1 4857 0.00000000E+00 0.00000000E+00
  1 4858 0.00000000E+00 0.00000000E+00
  1 4859 0.00000000E+00 0.00000000E+00
  1 4860 0.00000000E+00 0.00000000E+00
  1 4861 0.00000000E+00 0.00000000E+00
  1 4862 0.00000000E+00 0.00000000E+00
  1 4863 0.00000000E+00 0.00000000E+00
  1 4864 0.00000000E+00 0.00000000E+00
  1 4865 0.00000000E+00 0.00000000E+00
  1 4866 0.00000000E+00 0.00000000E+00
  1 4867 0.00000000E+00 0.00000000E+00
  1 4868 0.00000000E+00 0.00000000E+00
  1 4869 0.00000000E+00 0.00000000E+00
  1 4870 0.00000000E+00 0.00000000E+00
  1 4871 0.00000000E+00 0.00000000E+00
  1 4872 0.00000000E+00 0.00000000E+00
  1 4873 0.00000000E+00 0.00000000E+00
  1 4874 0.00000000E+00 0.00000000E+00
END period  1

BEGIN period  2
  1 4843 0.00000000E+00 0.00000000E+00
  1 4844 0.00000000E+00 0.00000000E+00
  1 4845 0.00000000E+00 0.00000000E+00
  1 4846 0.00000000E+00 0.00000000E+00
  1 4847 0.00000000E+00 0.00000000E+00
  1 4848 0.00000000E+00 0.00000000E+00
  1 4849 0.00000000E+00 0.00000000E+00
  1 4850 0.00000000E+00 0.00000000E+00
  1 4851 0.00000000E+00 0.00000000E+00
  1 4852 0.00000000E+00 0.00000000E+00
  1 4853 0.00000000E+00 0.00000000E+00
  1 4854 0.00000000E+00 0.00000000E+00
  1 4855 0.00000000E+00 0.00000000E+00
  1 4856 0.00000000E+00 0.00000000E+00
  1 4857 0.00000000E+00 0.00000000E+00
  1 4858 0.00000000E+00 0.00000000E+00
  1 4859 0.00000000E+00 0.00000000E+00
  1 4860 0.00000000E+00 0.00000000E+00
  1 4861 0.00000000E+00 0.00000000E+00
  1 4862 0.00000000E+00 0.00000000E+00
  1 4863 0.00000000E+00 0.00000000E+00
  1 4864 0.00000000E+00 0.00000000E+00
  1 4865 0.00000000E+00 0.00000000E+00
  1 4866 0.00000000E+00 0.00000000E+00
  1 4867 0.00000000E+00 0.00000000E+00
  1 4868 0.00000000E+00 0.00000000E+00
  1 4869 0.00000000E+00 0.00000000E+00
  1 4870 0.00000000E+00 0.00000000E+00
  1 4871 0.00000000E+00 0.00000000E+00
  1 4872 0.00000000E+00 0.00000000E+00
  1 4873 0.00000000E+00 0.00000000E+00
  1 4874 0.00000000E+00 0.00000000E+00
END period  2

BEGIN period  3
  1 4843 -9.60000000E-02 0.00000000E+00
  1 4844 -9.60000000E-02 0.00000000E+00
  1 4845 -9.60000000E-02 0.00000000E+00
  1 4846 -9.60000000E-02 0.00000000E+00
  1 4847 -9.60000000E-02 0.00000000E+00
  1 4848 -9.60000000E-02 0.00000000E+00
  1 4849 -9.60000000E-02 0.00000000E+00
  1 4850 -9.60000000E-02 0.00000000E+00
  1 4851 -9.60000000E-02 0.00000000E+00
  1 4852 -9.60000000E-02 0.00000000E+00
  1 4853 -9.60000000E-02 0.00000000E+00
  1 4854 -9.60000000E-02 0.00000000E+00
  1 4855 -9.60000000E-02 0.00000000E+00
  1 4856 -9.60000000E-02 0.00000000E+00
  1 4857 -9.60000000E-02 0.00000000E+00
  1 4858 -9.60000000E-02 0.00000000E+00
  1 4859 -9.60000000E-02 0.00000000E+00
  1 4860 -9.60000000E-02 0.00000000E+00
  1 4861 -9.60000000E-02 0.00000000E+00
  1 4862 -9.60000000E-02 0.00000000E+00
  1 4863 -9.60000000E-02 0.00000000E+00
  1 4864 -9.60000000E-02 0.00000000E+00
  1 4865 -9.60000000E-02 0.00000000E+00
  1 4866 -9.60000000E-02 0.00000000E+00
  1 4867 -9.60000000E-02 0.00000000E+00
  1 4868 -9.60000000E-02 0.00000000E+00
  1 4869 -9.60000000E-02 0.00000000E+00
  1 4870 -9.60000000E-02 0.00000000E+00
  1 4871 -9.60000000E-02 0.00000000E+00
  1 4872 -9.60000000E-02 0.00000000E+00
  1 4873 -9.60000000E-02 0.00000000E+00
  1 4874 -9.60000000E-02 0.00000000E+00
END period  3

BEGIN period  4
  1 4843 -1.93000000E-01 0.00000000E+00
  1 4844 -1.93000000E-01 0.00000000E+00
  1 4845 -1.93000000E-01 0.00000000E+00
  1 4846 -1.93000000E-01 0.00000000E+00
  1 4847 -1.93000000E-01 0.00000000E+00
  1 4848 -1.93000000E-01 0.00000000E+00
  1 4849 -1.93000000E-01 0.00000000E+00
  1 4850 -1.93000000E-01 0.00000000E+00
  1 4851 -1.93000000E-01 0.00000000E+00
  1 4852 -1.93000000E-01 0.00000000E+00
  1 4853 -1.93000000E-01 0.00000000E+00
  1 4854 -1.93000000E-01 0.00000000E+00
  1 4855 -1.93000000E-01 0.00000000E+00
  1 4856 -1.93000000E-01 0.00000000E+00
  1 4857 -1.93000000E-01 0.00000000E+00
  1 4858 -1.93000000E-01 0.00000000E+00
  1 4859 -1.93000000E-01 0.00000000E+00
  1 4860 -1.93000000E-01 0.00000000E+00
  1 4861 -1.93000000E-01 0.00000000E+00
  1 4862 -1.93000000E-01 0.00000000E+00
  1 4863 -1.93000000E-01 0.00000000E+00
  1 4864 -1.93000000E-01 0.00000000E+00
  1 4865 -1.93000000E-01 0.00000000E+00
  1 4866 -1.93000000E-01 0.00000000E+00
  1 4867 -1.93000000E-01 0.00000000E+00
  1 4868 -1.93000000E-01 0.00000000E+00
  1 4869 -1.93000000E-01 0.00000000E+00
  1 4870 -1.93000000E-01 0.00000000E+00
  1 4871 -1.93000000E-01 0.00000000E+00
  1 4872 -1.93000000E-01 0.00000000E+00
  1 4873 -1.93000000E-01 0.00000000E+00
  1 4874 -1.93000000E-01 0.00000000E+00
END period  4

BEGIN period  5
  1 4843 -2.89000000E-01 0.00000000E+00
  1 4844 -2.89000000E-01 0.00000000E+00
  1 4845 -2.89000000E-01 0.00000000E+00
  1 4846 -2.89000000E-01 0.00000000E+00
  1 4847 -2.89000000E-01 0.00000000E+00
  1 4848 -2.89000000E-01 0.00000000E+00
  1 4849 -2.89000000E-01 0.00000000E+00
  1 4850 -2.89000000E-01 0.00000000E+00
  1 4851 -2.89000000E-01 0.00000000E+00
  1 4852 -2.89000000E-01 0.00000000E+00
  1 4853 -2.89000000E-01 0.00000000E+00
  1 4854 -2.89000000E-01 0.00000000E+00
  1 4855 -2.89000000E-01 0.00000000E+00
  1 4856 -2.89000000E-01 0.00000000E+00
  1 4857 -2.89000000E-01 0.00000000E+00
  1 4858 -2.89000000E-01 0.00000000E+00
  1 4859 -2.89000000E-01 0.00000000E+00
  1 4860 -2.89000000E-01 0.00000000E+00
  1 4861 -2.89000000E-01 0.00000000E+00
  1 4862 -2.89000000E-01 0.00000000E+00
  1 4863 -2.89000000E-01 0.00000000E+00
  1 4864 -2.89000000E-01 0.00000000E+00
  1 4865 -2.89000000E-01 0.00000000E+00
  1 4866 -2.89000000E-01 0.00000000E+00
  1 4867 -2.89000000E-01 0.00000000E+00
  1 4868 -2.89000000E-01 0.00000000E+00
  1 4869 -2.89000000E-01 0.00000000E+00
  1 4870 -2.89000000E-01 0.00000000E+00
  1 4871 -2.89000000E-01 0.00000000E+00
  1 4872 -2.89000000E-01 0.00000000E+00
  1 4873 -2.89000000E-01 0.00000000E+00
  1 4874 -2.89000000E-01 0.00000000E+00
END period  5

BEGIN period  6
  1 4843 -3.86000000E-01 0.00000000E+00
  1 4844 -3.86000000E-01 0.00000000E+00
  1 4845 -3.86000000E-01 0.00000000E+00
  1 4846 -3.86000000E-01 0.00000000E+00
  1 4847 -3.86000000E-01 0.00000000E+00
  1 4848 -3.86000000E-01 0.00000000E+00
  1 4849 -3.86000000E-01 0.00000000E+00
  1 4850 -3.86000000E-01 0.00000000E+00
  1 4851 -3.86000000E-01 0.00000000E+00
  1 4852 -3.86000000E-01 0.00000000E+00
  1 4853 -3.86000000E-01 0.00000000E+00
  1 4854 -3.86000000E-01 0.00000000E+00
  1 4855 -3.86000000E-01 0.00000000E+00
  1 4856 -3.86000000E-01 0.00000000E+00
  1 4857 -3.86000000E-01 0.00000000E+00
  1 4858 -3.86000000E-01 0.00000000E+00
  1 4859 -3.86000000E-01 0.00000000E+00
  1 4860 -3.86000000E-01 0.00000000E+00
  1 4861 -3.86000000E-01 0.00000000E+00
  1 4862 -3.86000000E-01 0.00000000E+00
  1 4863 -3.86000000E-01 0.00000000E+00
  1 4864 -3.86000000E-01 0.00000000E+00
  1 4865 -3.86000000E-01 0.00000000E+00
  1 4866 -3.86000000E-01 0.00000000E+00
  1 4867 -3.86000000E-01 0.00000000E+00
  1 4868 -3.86000000E-01 0.00000000E+00
  1 4869 -3.86000000E-01 0.00000000E+00
  1 4870 -3.86000000E-01 0.00000000E+00
  1 4871 -3.86000000E-01 0.00000000E+00
  1 4872 -3.86000000E-01 0.00000000E+00
  1 4873 -3.86000000E-01 0.00000000E+00
  1 4874 -3.86000000E-01 0.00000000E+00
END period  6

BEGIN period  7
  1 4843 -4.82000000E-01 0.00000000E+00
  1 4844 -4.82000000E-01 0.00000000E+00
  1 4845 -4.82000000E-01 0.00000000E+00
  1 4846 -4.82000000E-01 0.00000000E+00
  1 4847 -4.82000000E-01 0.00000000E+00
  1 4848 -4.82000000E-01 0.00000000E+00
  1 4849 -4.82000000E-01 0.00000000E+00
  1 4850 -4.82000000E-01 0.00000000E+00
  1 4851 -4.82000000E-01 0.00000000E+00
  1 4852 -4.82000000E-01 0.00000000E+00
  1 4853 -4.82000000E-01 0.00000000E+00
  1 4854 -4.82000000E-01 0.00000000E+00
  1 4855 -4.82000000E-01 0.00000000E+00
  1 4856 -4.82000000E-01 0.00000000E+00
  1 4857 -4.82000000E-01 0.00000000E+00
  1 4858 -4.82000000E-01 0.00000000E+00
  1 4859 -4.82000000E-01 0.00000000E+00
  1 4860 -4.82000000E-01 0.00000000E+00
  1 4861 -4.82000000E-01 0.00000000E+00
  1 4862 -4.82000000E-01 0.00000000E+00
  1 4863 -4.82000000E-01 0.00000000E+00
  1 4864 -4.82000000E-01 0.00000000E+00
  1 4865 -4.82000000E-01 0.00000000E+00
  1 4866 -4.82000000E-01 0.00000000E+00
  1 4867 -4.82000000E-01 0.00000000E+00
  1 4868 -4.82000000E-01 0.00000000E+00
  1 4869 -4.82000000E-01 0.00000000E+00
  1 4870 -4.82000000E-01 0.00000000E+00
  1 4871 -4.82000000E-01 0.00000000E+00
  1 4872 -4.82000000E-01 0.00000000E+00
  1 4873 -4.82000000E-01 0.00000000E+00
  1 4874 -4.82000000E-01 0.00000000E+00
END period  7

BEGIN period  8
  1 4843 -4.82000000E-01 0.00000000E+00
  1 4844 -4.82000000E-01 0.00000000E+00
  1 4845 -4.82000000E-01 0.00000000E+00
  1 4846 -4.82000000E-01 0.00000000E+00
  1 4847 -4.82000000E-01 0.00000000E+00
  1 4848 -4.82000000E-01 0.00000000E+00
  1 4849 -4.82000000E-01 0.00000000E+00
  1 4850 -4.82000000E-01 0.00000000E+00
  1 4851 -4.82000000E-01 0.00000000E+00
  1 4852 -4.82000000E-01 0.00000000E+00
  1 4853 -4.82000000E-01 0.00000000E+00
  1 4854 -4.82000000E-01 0.00000000E+00
  1 4855 -4.82000000E-01 0.00000000E+00
  1 4856 -4.82000000E-01 0.00000000E+00
  1 4857 -4.82000000E-01 0.00000000E+00
  1 4858 -4.82000000E-01 0.00000000E+00
  1 4859 -4.82000000E-01 0.00000000E+00
  1 4860 -4.82000000E-01 0.00000000E+00
  1 4861 -4.82000000E-01 0.00000000E+00
  1 4862 -4.82000000E-01 0.00000000E+00
  1 4863 -4.82000000E-01 0.00000000E+00
  1 4864 -4.82000000E-01 0.00000000E+00
  1 4865 -4.82000000E-01 0.00000000E+00
  1 4866 -4.82000000E-01 0.00000000E+00
  1 4867 -4.82000000E-01 0.00000000E+00
  1 4868 -4.82000000E-01 0.00000000E+00
  1 4869 -4.82000000E-01 0.00000000E+00
  1 4870 -4.82000000E-01 0.00000000E+00
  1 4871 -4.82000000E-01 0.00000000E+00
  1 4872 -4.82000000E-01 0.00000000E+00
  1 4873 -4.82000000E-01 0.00000000E+00
  1 4874 -4.82000000E-01 0.00000000E+00
END period  8

BEGIN period  9
  1 4843 -4.82000000E-01 0.00000000E+00
  1 4844 -4.82000000E-01 0.00000000E+00
  1 4845 -4.82000000E-01 0.00000000E+00
  1 4846 -4.82000000E-01 0.00000000E+00
  1 4847 -4.82000000E-01 0.00000000E+00
  1 4848 -4.82000000E-01 0.00000000E+00
  1 4849 -4.82000000E-01 0.00000000E+00
  1 4850 -4.82000000E-01 0.00000000E+00
  1 4851 -4.82000000E-01 0.00000000E+00
  1 4852 -4.82000000E-01 0.00000000E+00
  1 4853 -4.82000000E-01 0.00000000E+00
  1 4854 -4.82000000E-01 0.00000000E+00
  1 4855 -4.82000000E-01 0.00000000E+00
  1 4856 -4.82000000E-01 0.00000000E+00
  1 4857 -4.82000000E-01 0.00000000E+00
  1 4858 -4.82000000E-01 0.00000000E+00
  1 4859 -4.82000000E-01 0.00000000E+00
  1 4860 -4.82000000E-01 0.00000000E+00
  1 4861 -4.82000000E-01 0.00000000E+00
  1 4862 -4.82000000E-01 0.00000000E+00
  1 4863 -4.82000000E-01 0.00000000E+00
  1 4864 -4.82000000E-01 0.00000000E+00
  1 4865 -4.82000000E-01 0.00000000E+00
  1 4866 -4.82000000E-01 0.00000000E+00
  1 4867 -4.82000000E-01 0.00000000E+00
  1 4868 -4.82000000E-01 0.00000000E+00
  1 4869 -4.82000000E-01 0.00000000E+00
  1 4870 -4.82000000E-01 0.00000000E+00
  1 4871 -4.82000000E-01 0.00000000E+00
  1 4872 -4.82000000E-01 0.00000000E+00
  1 4873 -4.82000000E-01 0.00000000E+00
  1 4874 -4.82000000E-01 0.00000000E+00
END period  9

BEGIN period  10
  1 4843 -4.82000000E-01 0.00000000E+00
  1 4844 -4.82000000E-01 0.00000000E+00
  1 4845 -4.82000000E-01 0.00000000E+00
  1 4846 -4.82000000E-01 0.00000000E+00
  1 4847 -4.82000000E-01 0.00000000E+00
  1 4848 -4.82000000E-01 0.00000000E+00
  1 4849 -4.82000000E-01 0.00000000E+00
  1 4850 -4.82000000E-01 0.00000000E+00
  1 4851 -4.82000000E-01 0.00000000E+00
  1 4852 -4.82000000E-01 0.00000000E+00
  1 4853 -4.82000000E-01 0.00000000E+00
  1 4854 -4.82000000E-01 0.00000000E+00
  1 4855 -4.82000000E-01 0.00000000E+00
  1 4856 -4.82000000E-01 0.00000000E+00
  1 4857 -4.82000000E-01 0.00000000E+00
  1 4858 -4.82000000E-01 0.00000000E+00
  1 4859 -4.82000000E-01 0.00000000E+00
  1 4860 -4.82000000E-01 0.00000000E+00
  1 4861 -4.82000000E-01 0.00000000E+00
  1 4862 -4.82000000E-01 0.00000000E+00
  1 4863 -4.82000000E-01 0.00000000E+00
  1 4864 -4.82000000E-01 0.00000000E+00
  1 4865 -4.82000000E-01 0.00000000E+00
  1 4866 -4.82000000E-01 0.00000000E+00
  1 4867 -4.82000000E-01 0.00000000E+00
  1 4868 -4.82000000E-01 0.00000000E+00
  1 4869 -4.82000000E-01 0.00000000E+00
  1 4870 -4.82000000E-01 0.00000000E+00
  1 4871 -4.82000000E-01 0.00000000E+00
  1 4872 -4.82000000E-01 0.00000000E+00
  1 4873 -4.82000000E-01 0.00000000E+00
  1 4874 -4.82000000E-01 0.00000000E+00
END period  10

BEGIN period  11
  1 4843 -4.82000000E-01 0.00000000E+00
  1 4844 -4.82000000E-01 0.00000000E+00
  1 4845 -4.82000000E-01 0.00000000E+00
  1 4846 -4.82000000E-01 0.00000000E+00
  1 4847 -4.82000000E-01 0.00000000E+00
  1 4848 -4.82000000E-01 0.00000000E+00
  1 4849 -4.82000000E-01 0.00000000E+00
  1 4850 -4.82000000E-01 0.00000000E+00
  1 4851 -4.82000000E-01 0.00000000E+00
  1 4852 -4.82000000E-01 0.00000000E+00
  1 4853 -4.82000000E-01 0.00000000E+00
  1 4854 -4.82000000E-01 0.00000000E+00
  1 4855 -4.82000000E-01 0.00000000E+00
  1 4856 -4.82000000E-01 0.00000000E+00
  1 4857 -4.82000000E-01 0.00000000E+00
  1 4858 -4.82000000E-01 0.00000000E+00
  1 4859 -4.82000000E-01 0.00000000E+00
  1 4860 -4.82000000E-01 0.00000000E+00
  1 4861 -4.82000000E-01 0.00000000E+00
  1 4862 -4.82000000E-01 0.00000000E+00
  1 4863 -4.82000000E-01 0.00000000E+00
  1 4864 -4.82000000E-01 0.00000000E+00
  1 4865 -4.82000000E-01 0.00000000E+00
  1 4866 -4.82000000E-01 0.00000000E+00
  1 4867 -4.82000000E-01 0.00000000E+00
  1 4868 -4.82000000E-01 0.00000000E+00
  1 4869 -4.82000000E-01 0.00000000E+00
  1 4870 -4.82000000E-01 0.00000000E+00
  1 4871 -4.82000000E-01 0.00000000E+00
  1 4872 -4.82000000E-01 0.00000000E+00
  1 4873 -4.82000000E-01 0.00000000E+00
  1 4874 -4.82000000E-01 0.00000000E+00
END period  11

BEGIN period  12
  1 4843 -4.82000000E-01 0.00000000E+00
  1 4844 -4.82000000E-01 0.00000000E+00
  1 4845 -4.82000000E-01 0.00000000E+00
  1 4846 -4.82000000E-01 0.00000000E+00
  1 4847 -4.82000000E-01 0.00000000E+00
  1 4848 -4.82000000E-01 0.00000000E+00
  1 4849 -4.82000000E-01 0.00000000E+00
  1 4850 -4.82000000E-01 0.00000000E+00
  1 4851 -4.82000000E-01 0.00000000E+00
  1 4852 -4.82000000E-01 0.00000000E+00
  1 4853 -4.82000000E-01 0.00000000E+00
  1 4854 -4.82000000E-01 0.00000000E+00
  1 4855 -4.82000000E-01 0.00000000E+00
  1 4856 -4.82000000E-01 0.00000000E+00
  1 4857 -4.82000000E-01 0.00000000E+00
  1 4858 -4.82000000E-01 0.00000000E+00
  1 4859 -4.82000000E-01 0.00000000E+00
  1 4860 -4.82000000E-01 0.00000000E+00
  1 4861 -4.82000000E-01 0.00000000E+00
  1 4862 -4.82000000E-01 0.00000000E+00
  1 4863 -4.82000000E-01 0.00000000E+00
  1 4864 -4.82000000E-01 0.00000000E+00
  1 4865 -4.82000000E-01 0.00000000E+00
  1 4866 -4.82000000E-01 0.00000000E+00
  1 4867 -4.82000000E-01 0.00000000E+00
  1 4868 -4.82000000E-01 0.00000000E+00
  1 4869 -4.82000000E-01 0.00000000E+00
  1 4870 -4.82000000E-01 0.00000000E+00
  1 4871 -4.82000000E-01 0.00000000E+00
  1 4872 -4.82000000E-01 0.00000000E+00
  1 4873 -4.82000000E-01 0.00000000E+00
  1 4874 -4.82000000E-01 0.00000000E+00
END period  12

BEGIN period  13
  1 4843 -3.86000000E-01 0.00000000E+00
  1 4844 -3.86000000E-01 0.00000000E+00
  1 4845 -3.86000000E-01 0.00000000E+00
  1 4846 -3.86000000E-01 0.00000000E+00
  1 4847 -3.86000000E-01 0.00000000E+00
  1 4848 -3.86000000E-01 0.00000000E+00
  1 4849 -3.86000000E-01 0.00000000E+00
  1 4850 -3.86000000E-01 0.00000000E+00
  1 4851 -3.86000000E-01 0.00000000E+00
  1 4852 -3.86000000E-01 0.00000000E+00
  1 4853 -3.86000000E-01 0.00000000E+00
  1 4854 -3.86000000E-01 0.00000000E+00
  1 4855 -3.86000000E-01 0.00000000E+00
  1 4856 -3.86000000E-01 0.00000000E+00
  1 4857 -3.86000000E-01 0.00000000E+00
  1 4858 -3.86000000E-01 0.00000000E+00
  1 4859 -3.86000000E-01 0.00000000E+00
  1 4860 -3.86000000E-01 0.00000000E+00
  1 4861 -3.86000000E-01 0.00000000E+00
  1 4862 -3.86000000E-01 0.00000000E+00
  1 4863 -3.86000000E-01 0.00000000E+00
  1 4864 -3.86000000E-01 0.00000000E+00
  1 4865 -3.86000000E-01 0.00000000E+00
  1 4866 -3.86000000E-01 0.00000000E+00
  1 4867 -3.86000000E-01 0.00000000E+00
  1 4868 -3.86000000E-01 0.00000000E+00
  1 4869 -3.86000000E-01 0.00000000E+00
  1 4870 -3.86000000E-01 0.00000000E+00
  1 4871 -3.86000000E-01 0.00000000E+00
  1 4872 -3.86000000E-01 0.00000000E+00
  1 4873 -3.86000000E-01 0.00000000E+00
  1 4874 -3.86000000E-01 0.00000000E+00
END period  13

BEGIN period  14
  1 4843 -2.89000000E-01 0.00000000E+00
  1 4844 -2.89000000E-01 0.00000000E+00
  1 4845 -2.89000000E-01 0.00000000E+00
  1 4846 -2.89000000E-01 0.00000000E+00
  1 4847 -2.89000000E-01 0.00000000E+00
  1 4848 -2.89000000E-01 0.00000000E+00
  1 4849 -2.89000000E-01 0.00000000E+00
  1 4850 -2.89000000E-01 0.00000000E+00
  1 4851 -2.89000000E-01 0.00000000E+00
  1 4852 -2.89000000E-01 0.00000000E+00
  1 4853 -2.89000000E-01 0.00000000E+00
  1 4854 -2.89000000E-01 0.00000000E+00
  1 4855 -2.89000000E-01 0.00000000E+00
  1 4856 -2.89000000E-01 0.00000000E+00
  1 4857 -2.89000000E-01 0.00000000E+00
  1 4858 -2.89000000E-01 0.00000000E+00
  1 4859 -2.89000000E-01 0.00000000E+00
  1 4860 -2.89000000E-01 0.00000000E+00
  1 4861 -2.89000000E-01 0.00000000E+00
  1 4862 -2.89000000E-01 0.00000000E+00
  1 4863 -2.89000000E-01 0.00000000E+00
  1 4864 -2.89000000E-01 0.00000000E+00
  1 4865 -2.89000000E-01 0.00000000E+00
  1 4866 -2.89000000E-01 0.00000000E+00
  1 4867 -2.89000000E-01 0.00000000E+00
  1 4868 -2.89000000E-01 0.00000000E+00
  1 4869 -2.89000000E-01 0.00000000E+00
  1 4870 -2.89000000E-01 0.00000000E+00
  1 4871 -2.89000000E-01 0.00000000E+00
  1 4872 -2.89000000E-01 0.00000000E+00
  1 4873 -2.89000000E-01 0.00000000E+00
  1 4874 -2.89000000E-01 0.00000000E+00
END period  14

BEGIN period  15
  1 4843 -1.93000000E-01 0.00000000E+00
  1 4844 -1.93000000E-01 0.00000000E+00
  1 4845 -1.93000000E-01 0.00000000E+00
  1 4846 -1.93000000E-01 0.00000000E+00
  1 4847 -1.93000000E-01 0.00000000E+00
  1 4848 -1.93000000E-01 0.00000000E+00
  1 4849 -1.93000000E-01 0.00000000E+00
  1 4850 -1.93000000E-01 0.00000000E+00
  1 4851 -1.93000000E-01 0.00000000E+00
  1 4852 -1.93000000E-01 0.00000000E+00
  1 4853 -1.93000000E-01 0.00000000E+00
  1 4854 -1.93000000E-01 0.00000000E+00
  1 4855 -1.93000000E-01 0.00000000E+00
  1 4856 -1.93000000E-01 0.00000000E+00
  1 4857 -1.93000000E-01 0.00000000E+00
  1 4858 -1.93000000E-01 0.00000000E+00
  1 4859 -1.93000000E-01 0.00000000E+00
  1 4860 -1.93000000E-01 0.00000000E+00
  1 4861 -1.93000000E-01 0.00000000E+00
  1 4862 -1.93000000E-01 0.00000000E+00
  1 4863 -1.93000000E-01 0.00000000E+00
  1 4864 -1.93000000E-01 0.00000000E+00
  1 4865 -1.93000000E-01 0.00000000E+00
  1 4866 -1.93000000E-01 0.00000000E+00
  1 4867 -1.93000000E-01 0.00000000E+00
  1 4868 -1.93000000E-01 0.00000000E+00
  1 4869 -1.93000000E-01 0.00000000E+00
  1 4870 -1.93000000E-01 0.00000000E+00
  1 4871 -1.93000000E-01 0.00000000E+00
  1 4872 -1.93000000E-01 0.00000000E+00
  1 4873 -1.93000000E-01 0.00000000E+00
  1 4874 -1.93000000E-01 0.00000000E+00
END period  15

BEGIN period  16
  1 4843 -9.60000000E-02 0.00000000E+00
  1 4844 -9.60000000E-02 0.00000000E+00
  1 4845 -9.60000000E-02 0.00000000E+00
  1 4846 -9.60000000E-02 0.00000000E+00
  1 4847 -9.60000000E-02 0.00000000E+00
  1 4848 -9.60000000E-02 0.00000000E+00
  1 4849 -9.60000000E-02 0.00000000E+00
  1 4850 -9.60000000E-02 0.00000000E+00
  1 4851 -9.60000000E-02 0.00000000E+00
  1 4852 -9.60000000E-02 0.00000000E+00
  1 4853 -9.60000000E-02 0.00000000E+00
  1 4854 -9.60000000E-02 0.00000000E+00
  1 4855 -9.60000000E-02 0.00000000E+00
  1 4856 -9.60000000E-02 0.00000000E+00
  1 4857 -9.60000000E-02 0.00000000E+00
  1 4858 -9.60000000E-02 0.00000000E+00
  1 4859 -9.60000000E-02 0.00000000E+00
  1 4860 -9.60000000E-02 0.00000000E+00
  1 4861 -9.60000000E-02 0.00000000E+00
  1 4862 -9.60000000E-02 0.00000000E+00
  1 4863 -9.60000000E-02 0.00000000E+00
  1 4864 -9.60000000E-02 0.00000000E+00
  1 4865 -9.60000000E-02 0.00000000E+00
  1 4866 -9.60000000E-02 0.00000000E+00
  1 4867 -9.60000000E-02 0.00000000E+00
  1 4868 -9.60000000E-02 0.00000000E+00
  1 4869 -9.60000000E-02 0.00000000E+00
  1 4870 -9.60000000E-02 0.00000000E+00
  1 4871 -9.60000000E-02 0.00000000E+00
  1 4872 -9.60000000E-02 0.00000000E+00
  1 4873 -9.60000000E-02 0.00000000E+00
  1 4874 -9.60000000E-02 0.00000000E+00
END period  16

BEGIN period  17
  1 4843 0.00000000E+00 0.00000000E+00
  1 4844 0.00000000E+00 0.00000000E+00
  1 4845 0.00000000E+00 0.00000000E+00
  1 4846 0.00000000E+00 0.00000000E+00
  1 4847 0.00000000E+00 0.00000000E+00
  1 4848 0.00000000E+00 0.00000000E+00
  1 4849 0.00000000E+00 0.00000000E+00
  1 4850 0.00000000E+00 0.00000000E+00
  1 4851 0.00000000E+00 0.00000000E+00
  1 4852 0.00000000E+00 0.00000000E+00
  1 4853 0.00000000E+00 0.00000000E+00
  1 4854 0.00000000E+00 0.00000000E+00
  1 4855 0.00000000E+00 0.00000000E+00
  1 4856 0.00000000E+00 0.00000000E+00
  1 4857 0.00000000E+00 0.00000000E+00
  1 4858 0.00000000E+00 0.00000000E+00
  1 4859 0.00000000E+00 0.00000000E+00
  1 4860 0.00000000E+00 0.00000000E+00
  1 4861 0.00000000E+00 0.00000000E+00
  1 4862 0.00000000E+00 0.00000000E+00
  1 4863 0.00000000E+00 0.00000000E+00
  1 4864 0.00000000E+00 0.00000000E+00
  1 4865 0.00000000E+00 0.00000000E+00
  1 4866 0.00000000E+00 0.00000000E+00
  1 4867 0.00000000E+00 0.00000000E+00
  1 4868 0.00000000E+00 0.00000000E+00
  1 4869 0.00000000E+00 0.00000000E+00
  1 4870 0.00000000E+00 0.00000000E+00
  1 4871 0.00000000E+00 0.00000000E+00
  1 4872 0.00000000E+00 0.00000000E+00
  1 4873 0.00000000E+00 0.00000000E+00
  1 4874 0.00000000E+00 0.00000000E+00
END period  17

BEGIN period  18
  1 4843 0.00000000E+00 0.00000000E+00
  1 4844 0.00000000E+00 0.00000000E+00
  1 4845 0.00000000E+00 0.00000000E+00
  1 4846 0.00000000E+00 0.00000000E+00
  1 4847 0.00000000E+00 0.00000000E+00
  1 4848 0.00000000E+00 0.00000000E+00
  1 4849 0.00000000E+00 0.00000000E+00
  1 4850 0.00000000E+00 0.00000000E+00
  1 4851 0.00000000E+00 0.00000000E+00
  1 4852 0.00000000E+00 0.00000000E+00
  1 4853 0.00000000E+00 0.00000000E+00
  1 4854 0.00000000E+00 0.00000000E+00
  1 4855 0.00000000E+00 0.00000000E+00
  1 4856 0.00000000E+00 0.00000000E+00
  1 4857 0.00000000E+00 0.00000000E+00
  1 4858 0.00000000E+00 0.00000000E+00
  1 4859 0.00000000E+00 0.00000000E+00
  1 4860 0.00000000E+00 0.00000000E+00
  1 4861 0.00000000E+00 0.00000000E+00
  1 4862 0.00000000E+00 0.00000000E+00
  1 4863 0.00000000E+00 0.00000000E+00
  1 4864 0.00000000E+00 0.00000000E+00
  1 4865 0.00000000E+00 0.00000000E+00
  1 4866 0.00000000E+00 0.00000000E+00
  1 4867 0.00000000E+00 0.00000000E+00
  1 4868 0.00000000E+00 0.00000000E+00
  1 4869 0.00000000E+00 0.00000000E+00
  1 4870 0.00000000E+00 0.00000000E+00
  1 4871 0.00000000E+00 0.00000000E+00
  1 4872 0.00000000E+00 0.00000000E+00
  1 4873 0.00000000E+00 0.00000000E+00
  1 4874 0.00000000E+00 0.00000000E+00
END period  18

BEGIN period  19
  1 4843 0.00000000E+00 0.00000000E+00
  1 4844 0.00000000E+00 0.00000000E+00
  1 4845 0.00000000E+00 0.00000000E+00
  1 4846 0.00000000E+00 0.00000000E+00
  1 4847 0.00000000E+00 0.00000000E+00
  1 4848 0.00000000E+00 0.00000000E+00
  1 4849 0.00000000E+00 0.00000000E+00
  1 4850 0.00000000E+00 0.00000000E+00
  1 4851 0.00000000E+00 0.00000000E+00
  1 4852 0.00000000E+00 0.00000000E+00
  1 4853 0.00000000E+00 0.00000000E+00
  1 4854 0.00000000E+00 0.00000000E+00
  1 4855 0.00000000E+00 0.00000000E+00
  1 4856 0.00000000E+00 0.00000000E+00
  1 4857 0.00000000E+00 0.00000000E+00
  1 4858 0.00000000E+00 0.00000000E+00
  1 4859 0.00000000E+00 0.00000000E+00
  1 4860 0.00000000E+00 0.00000000E+00
  1 4861 0.00000000E+00 0.00000000E+00
  1 4862 0.00000000E+00 0.00000000E+00
  1 4863 0.00000000E+00 0.00000000E+00
  1 4864 0.00000000E+00 0.00000000E+00
  1 4865 0.00000000E+00 0.00000000E+00
  1 4866 0.00000000E+00 0.00000000E+00
  1 4867 0.00000000E+00 0.00000000E+00
  1 4868 0.00000000E+00 0.00000000E+00
  1 4869 0.00000000E+00 0.00000000E+00
  1 4870 0.00000000E+00 0.00000000E+00
  1 4871 0.00000000E+00 0.00000000E+00
  1 4872 0.00000000E+00 0.00000000E+00
  1 4873 0.00000000E+00 0.00000000E+00
  1 4874 0.00000000E+00 0.00000000E+00
END period  19

BEGIN period  20
  1 4843 0.00000000E+00 0.00000000E+00
  1 4844 0.00000000E+00 0.00000000E+00
  1 4845 0.00000000E+00 0.00000000E+00
  1 4846 0.00000000E+00 0.00000000E+00
  1 4847 0.00000000E+00 0.00000000E+00
  1 4848 0.00000000E+00 0.00000000E+00
  1 4849 0.00000000E+00 0.00000000E+00
  1 4850 0.00000000E+00 0.00000000E+00
  1 4851 0.00000000E+00 0.00000000E+00
  1 4852 0.00000000E+00 0.00000000E+00
  1 4853 0.00000000E+00 0.00000000E+00
  1 4854 0.00000000E+00 0.00000000E+00
  1 4855 0.00000000E+00 0.00000000E+00
  1 4856 0.00000000E+00 0.00000000E+00
  1 4857 0.00000000E+00 0.00000000E+00
  1 4858 0.00000000E+00 0.00000000E+00
  1 4859 0.00000000E+00 0.00000000E+00
  1 4860 0.00000000E+00 0.00000000E+00
  1 4861 0.00000000E+00 0.00000000E+00
  1 4862 0.00000000E+00 0.00000000E+00
  1 4863 0.00000000E+00 0.00000000E+00
  1 4864 0.00000000E+00 0.00000000E+00
  1 4865 0.00000000E+00 0.00000000E+00
  1 4866 0.00000000E+00 0.00000000E+00
  1 4867 0.00000000E+00 0.00000000E+00
  1 4868 0.00000000E+00 0.00000000E+00
  1 4869 0.00000000E+00 0.00000000E+00
  1 4870 0.00000000E+00 0.00000000E+00
  1 4871 0.00000000E+00 0.00000000E+00
  1 4872 0.00000000E+00 0.00000000E+00
  1 4873 0.00000000E+00 0.00000000E+00
  1 4874 0.00000000E+00 0.00000000E+00
END period  20

BEGIN period  21
  1 4843 9.60000000E-02 20
  1 4844 9.60000000E-02 20
  1 4845 9.60000000E-02 20
  1 4846 9.60000000E-02 20
  1 4847 9.60000000E-02 20
  1 4848 9.60000000E-02 20
  1 4849 9.60000000E-02 20
  1 4850 9.60000000E-02 20
  1 4851 9.60000000E-02 20
  1 4852 9.60000000E-02 20
  1 4853 9.60000000E-02 20
  1 4854 9.60000000E-02 20
  1 4855 9.60000000E-02 20
  1 4856 9.60000000E-02 20
  1 4857 9.60000000E-02 20
  1 4858 9.60000000E-02 20
  1 4859 9.60000000E-02 20
  1 4860 9.60000000E-02 20
  1 4861 9.60000000E-02 20
  1 4862 9.60000000E-02 20
  1 4863 9.60000000E-02 20
  1 4864 9.60000000E-02 20
  1 4865 9.60000000E-02 20
  1 4866 9.60000000E-02 20
  1 4867 9.60000000E-02 20
  1 4868 9.60000000E-02 20
  1 4869 9.60000000E-02 20
  1 4870 9.60000000E-02 20
  1 4871 9.60000000E-02 20
  1 4872 9.60000000E-02 20
  1 4873 9.60000000E-02 20
  1 4874 9.60000000E-02 20
END period  21

BEGIN period  22
  1 4843 1.93000000E-01 20
  1 4844 1.93000000E-01 20
  1 4845 1.93000000E-01 20
  1 4846 1.93000000E-01 20
  1 4847 1.93000000E-01 20
  1 4848 1.93000000E-01 20
  1 4849 1.93000000E-01 20
  1 4850 1.93000000E-01 20
  1 4851 1.93000000E-01 20
  1 4852 1.93000000E-01 20
  1 4853 1.93000000E-01 20
  1 4854 1.93000000E-01 20
  1 4855 1.93000000E-01 20
  1 4856 1.93000000E-01 20
  1 4857 1.93000000E-01 20
  1 4858 1.93000000E-01 20
  1 4859 1.93000000E-01 20
  1 4860 1.93000000E-01 20
  1 4861 1.93000000E-01 20
  1 4862 1.93000000E-01 20
  1 4863 1.93000000E-01 20
  1 4864 1.93000000E-01 20
  1 4865 1.93000000E-01 20
  1 4866 1.93000000E-01 20
  1 4867 1.93000000E-01 20
  1 4868 1.93000000E-01 20
  1 4869 1.93000000E-01 20
  1 4870 1.93000000E-01 20
  1 4871 1.93000000E-01 20
  1 4872 1.93000000E-01 20
  1 4873 1.93000000E-01 20
  1 4874 1.93000000E-01 20
END period  22

BEGIN period  23
  1 4843 2.89000000E-01 20
  1 4844 2.89000000E-01 20
  1 4845 2.89000000E-01 20
  1 4846 2.89000000E-01 20
  1 4847 2.89000000E-01 20
  1 4848 2.89000000E-01 20
  1 4849 2.89000000E-01 20
  1 4850 2.89000000E-01 20
  1 4851 2.89000000E-01 20
  1 4852 2.89000000E-01 20
  1 4853 2.89000000E-01 20
  1 4854 2.89000000E-01 20
  1 4855 2.89000000E-01 20
  1 4856 2.89000000E-01 20
  1 4857 2.89000000E-01 20
  1 4858 2.89000000E-01 20
  1 4859 2.89000000E-01 20
  1 4860 2.89000000E-01 20
  1 4861 2.89000000E-01 20
  1 4862 2.89000000E-01 20
  1 4863 2.89000000E-01 20
  1 4864 2.89000000E-01 20
  1 4865 2.89000000E-01 20
  1 4866 2.89000000E-01 20
  1 4867 2.89000000E-01 20
  1 4868 2.89000000E-01 20
  1 4869 2.89000000E-01 20
  1 4870 2.89000000E-01 20
  1 4871 2.89000000E-01 20
  1 4872 2.89000000E-01 20
  1 4873 2.89000000E-01 20
  1 4874 2.89000000E-01 20
END period  23

BEGIN period  24
  1 4843 3.86000000E-01 20
  1 4844 3.86000000E-01 20
  1 4845 3.86000000E-01 20
  1 4846 3.86000000E-01 20
  1 4847 3.86000000E-01 20
  1 4848 3.86000000E-01 20
  1 4849 3.86000000E-01 20
  1 4850 3.86000000E-01 20
  1 4851 3.86000000E-01 20
  1 4852 3.86000000E-01 20
  1 4853 3.86000000E-01 20
  1 4854 3.86000000E-01 20
  1 4855 3.86000000E-01 20
  1 4856 3.86000000E-01 20
  1 4857 3.86000000E-01 20
  1 4858 3.86000000E-01 20
  1 4859 3.86000000E-01 20
  1 4860 3.86000000E-01 20
  1 4861 3.86000000E-01 20
  1 4862 3.86000000E-01 20
  1 4863 3.86000000E-01 20
  1 4864 3.86000000E-01 20
  1 4865 3.86000000E-01 20
  1 4866 3.86000000E-01 20
  1 4867 3.86000000E-01 20
  1 4868 3.86000000E-01 20
  1 4869 3.86000000E-01 20
  1 4870 3.86000000E-01 20
  1 4871 3.86000000E-01 20
  1 4872 3.86000000E-01 20
  1 4873 3.86000000E-01 20
  1 4874 3.86000000E-01 20
END period  24

BEGIN period  25
  1 4843 4.82000000E-01 20
  1 4844 4.82000000E-01 20
  1 4845 4.82000000E-01 20
  1 4846 4.82000000E-01 20
  1 4847 4.82000000E-01 20
  1 4848 4.82000000E-01 20