# File generated by Flopy version 3.7.0 on 05/31/2024 at 13:13:15.
BEGIN options
END options

BEGIN griddata
  strt
    CONSTANT    1000.00000000
END griddata

