# File generated by Flopy version 3.7.0 on 05/31/2024 at 13:13:14.
BEGIN options
  SAVE_FLOWS
END options

BEGIN packages
  DISV6  gwf-ates.disv  disv
  NPF6  gwf-ates.npf  npf
  IC6  gwf-ates.ic  ic
  STO6  gwf-ates.sto  sto
  WEL6  gwf-ates.wel  wel
  OC6  gwf-ates.oc  oc
END packages

