# File generated by Flopy version 3.7.0 on 05/31/2024 at 13:13:15.
BEGIN options
  SAVE_SPECIFIC_DISCHARGE
  SAVE_SATURATION
END options

BEGIN griddata
  icelltype
    CONSTANT  0
  k
    INTERNAL  FACTOR  1.0
         8.64000000       8.64000000  8.64000000E-04  8.64000000E-04       8.64000000  8.64000000E-04  8.64000000E-04  8.64000000E-04  8.64000000E-04       8.64000000  8.64000000E-04       8.64000000       8.64000000  8.64000000E-04  8.64000000E-04       8.64000000       8.64000000  8.64000000E-04       8.64000000  8.64000000E-04
         8.64000000       8.64000000  8.64000000E-04  8.64000000E-04  8.64000000E-04       8.64000000  8.64000000E-04  8.64000000E-04       8.64000000  8.64000000E-04  8.64000000E-04  8.64000000E-04  8.64000000E-04  8.64000000E-04  8.64000000E-04  8.64000000E-04  8.64000000E-04       8.64000000       8.64000000  8.64000000E-04
    8.64000000E-04       8.64000000  8.64000000E-04  8.64000000E-04       8.64000000       8.64000000  8.64000000E-04  8.64000000E-04  8.64000000E-04  8.64000000E-04  8.64000000E-04  8.64000000E-04       8.64000000  8.64000000E-04       8.64000000  8.64000000E-04       8.64000000  8.64000000E-04  8.64000000E-04  8.64000000E-04
    8.64000000E-04  8.64000000E-04  8.64000000E-04  8.64000000E-04  8.64000000E-04  8.64000000E-04  8.64000000E-04  8.64000000E-04  8.64000000E-04  8.64000000E-04  8.64000000E-04       8.64000000  8.64000000E-04  8.64000000E-04  8.64000000E-04  8.64000000E-04  8.64000000E-04  8.64000000E-04  8.64000000E-04  8.64000000E-04
    8.64000000E-04       8.64000000       8.64000000  8.64000000E-04  8.64000000E-04  8.64000000E-04  8.64000000E-04  8.64000000E-04  8.64000000E-04  8.64000000E-04  8.64000000E-04  8.64000000E-04  8.64000000E-04  8.64000000E-04       8.64000000       8.64000000  8.64000000E-04  8.64000000E-04  8.64000000E-04  8.64000000E-04
    8.64000000E-04  8.64000000E-04  8.64000000E-04  8.64000000E-04  8.64000000E-04       8.64000000       8.64000000       8.64000000  8.64000000E-04       8.64000000       8.64000000       8.64000000       8.64000000       8.64000000       8.64000000       8.64000000       8.64000000       8.64000000       8.64000000       8.64000000
    8.64000000E-04       8.64000000       8.64000000       8.64000000       8.64000000       8.64000000       8.64000000       8.64000000       8.64000000       8.64000000       8.64000000       8.64000000  8.64000000E-04       8.64000000       8.64000000       8.64000000       8.64000000       8.64000000       8.64000000       8.64000000
         8.64000000       8.64000000       8.64000000       8.64000000       8.64000000       8.64000000       8.64000000       8.64000000       8.64000000       8.64000000       8.64000000       8.64000000       8.64000000       8.64000000       8.64000000       8.64000000       8.64000000       8.64000000       8.64000000       8.64000000
         8.64000000       8.64000000       8.64000000       8.64000000       8.64000000       8.64000000       8.64000000       8.64000000       8.64000000       8.64000000       8.64000000       8.64000000       8.64000000       8.64000000       8.64000000       8.64000000       8.64000000       8.64000000       8.64000000       8.64000000
         8.64000000       8.64000000       8.64000000       8.64000000       8.64000000       8.64000000       8.64000000       8.64000000       8.64000000       8.64000000       8.64000000       8.64000000       8.64000000       8.64000000       8.64000000       8.64000000       8.64000000       8.64000000       8.64000000       8.64000000
         8.64000000       8.64000000       8.64000000       8.64000000       8.64000000       8.64000000       8.64000000       8.64000000       8.64000000       8.64000000       8.64000000       8.64000000       8.64000000       8.64000000       8.64000000       8.64000000       8.64000000       8.64000000       8.64000000       8.64000000
         8.64000000       8.64000000       8.64000000       8.64000000       8.64000000       8.64000000       8.64000000       8.64000000       8.64000000       8.64000000       8.64000000       8.64000000       8.64000000       8.64000000       8.64000000       8.64000000       8.64000000       8.64000000       8.64000000       8.64000000
         8.64000000       8.64000000       8.64000000       8.64000000       8.64000000       8.64000000       8.64000000  8.64000000E-04       8.64000000       8.64000000       8.64000000       8.64000000       8.64000000       8.64000000       8.64000000       8.64000000       8.64000000       8.64000000       8.64000000       8.64000000
         8.64000000       8.64000000       8.64000000       8.64000000       8.64000000       8.64000000       8.64000000       8.64000000       8.64000000       8.64000000       8.64000000       8.64000000       8.64000000       8.64000000       8.64000000       8.64000000       8.64000000       8.64000000       8.64000000       8.64000000
         8.64000000       8.64000000       8.64000000       8.64000000       8.64000000       8.64000000       8.64000000       8.64000000       8.64000000       8.64000000       8.64000000       8.64000000       8.64000000       8.64000000       8.64000000       8.64000000       8.64000000       8.64000000       8.64000000       8.64000000
         8.64000000       8.64000000       8.64000000       8.64000000       8.64000000       8.64000000       8.64000000       8.64000000       8.64000000       8.64000000       8.64000000       8.64000000       8.64000000       8.64000000       8.64000000       8.64000000       8.64000000       8.64000000       8.64000000       8.64000000
         8.64000000       8.64000000       8.64000000       8.64000000       8.64000000       8.64000000       8.64000000       8.64000000       8.64000000       8.64000000       8.64000000       8.64000000       8.64000000       8.64000000       8.64000000       8.64000000       8.64000000       8.64000000       8.64000000       8.64000000
         8.64000000       8.64000000       8.64000000       8.64000000       8.64000000       8.64000000       8.64000000       8.64000000       8.64000000       8.64000000       8.64000000       8.64000000       8.64000000       8.64000000       8.64000000       8.64000000       8.64000000       8.64000000       8.64000000       8.64000000
         8.64000000       8.64000000       8.64000000       8.64000000       8.64000000       8.64000000       8.64000000       8.64000000       8.64000000       8.64000000       8.64000000       8.64000000       8.64000000       8.64000000       8.64000000       8.64000000  8.64000000E-04       8.64000000       8.64000000       8.64000000
         8.64000000       8.64000000       8.64000000       8.64000000       8.64000000       8.64000000       8.64000000       8.64000000       8.64000000       8.64000000       8.64000000       8.64000000       8.64000000       8.64000000       8.64000000       8.64000000       8.64000000       8.64000000       8.64000000       8.64000000
         8.64000000       8.64000000       8.64000000       8.64000000       8.64000000       8.64000000  8.64000000E-04       8.64000000       8.64000000       8.64000000       8.64000000       8.64000000       8.64000000       8.64000000       8.64000000       8.64000000       8.64000000       8.64000000       8.64000000       8.64000000
         8.64000000       8.64000000       8.64000000       8.64000000       8.64000000  8.64000000E-04       8.64000000       8.64000000       8.64000000       8.64000000       8.64000000       8.64000000       8.64000000       8.64000000       8.64000000       8.64000000       8.64000000       8.64000000       8.64000000       8.64000000
         8.64000000       8.64000000       8.64000000       8.64000000       8.64000000  8.64000000E-04       8.64000000       8.64000000       8.64000000       8.64000000       8.64000000       8.64000000       8.64000000       8.64000000       8.64000000       8.64000000       8.64000000       8.64000000       8.64000000       8.64000000
         8.64000000       8.64000000       8.64000000       8.64000000       8.64000000       8.64000000       8.64000000       8.64000000       8.64000000       8.64000000       8.64000000       8.64000000       8.64000000       8.64000000       8.64000000       8.64000000       8.64000000       8.64000000       8.64000000       8.64000000
         8.64000000       8.64000000       8.64000000       8.64000000       8.64000000       8.64000000       8.64000000       8.64000000       8.64000000       8.64000000       8.64000000       8.64000000       8.64000000       8.64000000       8.64000000       8.64000000       8.64000000       8.64000000       8.64000000       8.64000000
         8.64000000       8.64000000       8.64000000       8.64000000       8.64000000       8.64000000       8.64000000  8.64000000E-04       8.64000000       8.64000000       8.64000000       8.64000000       8.64000000       8.64000000  8.64000000E-04       8.64000000       8.64000000       8.64000000       8.64000000       8.64000000
         8.64000000       8.64000000       8.64000000  8.64000000E-04       8.64000000       8.64000000       8.64000000       8.64000000       8.64000000       8.64000000       8.64000000       8.64000000       8.64000000       8.64000000       8.64000000       8.64000000       8.64000000       8.64000000       8.64000000       8.64000000
         8.64000000       8.64000000       8.64000000       8.64000000       8.64000000       8.64000000       8.64000000       8.64000000       8.64000000       8.64000000       8.64000000       8.64000000       8.64000000  8.64000000E-04       8.64000000  8.64000000E-04       8.64000000       8.64000000       8.64000000       8.64000000
         8.64000000       8.64000000       8.64000000       8.64000000       8.64000000       8.64000000       8.64000000       8.64000000       8.64000000  8.64000000E-04       8.64000000       8.64000000       8.64000000       8.64000000       8.64000000       8.64000000       8.64000000       8.64000000       8.64000000       8.64000000
         8.64000000       8.64000000       8.64000000       8.64000000       8.64000000       8.64000000       8.64000000       8.64000000       8.64000000       8.64000000       8.64000000  8.64000000E-04  8.64000000E-04  8.64000000E-04  8.64000000E-04  8.64000000E-04       8.64000000       8.64000000       8.64000000       8.64000000
         8.64000000       8.64000000       8.64000000       8.64000000  8.64000000E-04  8.64000000E-04       8.64000000       8.64000000       8.64000000       8.64000000       8.64000000       8.64000000       8.64000000  8.64000000E-04       8.64000000       8.64000000       8.64000000       8.64000000       8.64000000       8.64000000
         8.64000000       8.64000000       8.64000000       8.64000000       8.64000000       8.64000000       8.64000000       8.64000000       8.64000000       8.64000000  8.64000000E-04  8.64000000E-04       8.64000000       8.64000000  8.64000000E-04  8.64000000E-04       8.64000000       8.64000000       8.64000000       8.64000000
         8.64000000       8.64000000       8.64000000       8.64000000       8.64000000       8.64000000       8.64000000       8.64000000       8.64000000       8.64000000       8.64000000       8.64000000       8.64000000       8.64000000       8.64000000       8.64000000       8.64000000       8.64000000       8.64000000  8.64000000E-04
         8.64000000       8.64000000       8.64000000       8.64000000       8.64000000       8.64000000       8.64000000       8.64000000       8.64000000       8.64000000  8.64000000E-04  8.64000000E-04  8.64000000E-04  8.64000000E-04       8.64000000       8.64000000       8.64000000       8.64000000       8.64000000       8.64000000
         8.64000000       8.64000000       8.64000000       8.64000000       8.64000000       8.64000000       8.64000000       8.64000000       8.64000000       8.64000000       8.64000000       8.64000000       8.64000000       8.64000000       8.64000000       8.64000000       8.64000000       8.64000000       8.64000000       8.64000000
         8.64000000       8.64000000       8.64000000       8.64000000       8.64000000       8.64000000       8.64000000       8.64000000       8.64000000       8.64000000       8.64000000       8.64000000       8.64000000       8.64000000       8.64000000       8.64000000       8.64000000       8.64000000       8.64000000       8.64000000
         8.64000000       8.64000000       8.64000000       8.64000000       8.64000000       8.64000000       8.64000000       8.64000000       8.64000000       8.64000000       8.64000000       8.64000000       8.64000000  8.64000000E-04       8.64000000       8.64000000       8.64000000       8.64000000       8.64000000       8.64000000
         8.64000000       8.64000000       8.64000000       8.64000000       8.64000000       8.64000000       8.64000000       8.64000000  8.64000000E-04       8.64000000       8.64000000       8.64000000       8.64000000       8.64000000       8.64000000       8.64000000       8.64000000       8.64000000       8.64000000       8.64000000
         8.64000000       8.64000000       8.64000000       8.64000000       8.64000000       8.64000000       8.64000000       8.64000000       8.64000000       8.64000000       8.64000000       8.64000000       8.64000000       8.64000000       8.64000000       8.64000000       8.64000000       8.64000000       8.64000000       8.64000000
         8.64000000       8.64000000       8.64000000       8.64000000       8.64000000       8.64000000       8.64000000       8.64000000       8.64000000       8.64000000       8.64000000       8.64000000       8.64000000       8.64000000       8.64000000       8.64000000  8.64000000E-04       8.64000000       8.64000000       8.64000000
         8.64000000       8.64000000       8.64000000  8.64000000E-04       8.64000000       8.64000000       8.64000000       8.64000000       8.64000000  8.64000000E-04       8.64000000       8.64000000       8.64000000       8.64000000       8.64000000       8.64000000       8.64000000       8.64000000       8.64000000       8.64000000
         8.64000000       8.64000000       8.64000000       8.64000000       8.64000000       8.64000000       8.64000000       8.64000000       8.64000000       8.64000000       8.64000000       8.64000000       8.64000000       8.64000000       8.64000000       8.64000000       8.64000000       8.64000000       8.64000000       8.64000000
         8.64000000       8.64000000       8.64000000       8.64000000       8.64000000       8.64000000       8.64000000       8.64000000       8.64000000       8.64000000       8.64000000       8.64000000       8.64000000       8.64000000       8.64000000       8.64000000       8.64000000       8.64000000       8.64000000       8.64000000
         8.64000000       8.64000000       8.64000000       8.64000000       8.64000000       8.64000000       8.64000000       8.64000000       8.64000000       8.64000000       8.64000000       8.64000000       8.64000000  8.64000000E-04       8.64000000       8.64000000       8.64000000  8.64000000E-04       8.64000000       8.64000000
         8.64000000       8.64000000       8.64000000       8.64000000       8.64000000       8.64000000       8.64000000       8.64000000       8.64000000       8.64000000       8.64000000       8.64000000       8.64000000       8.64000000       8.64000000       8.64000000       8.64000000       8.64000000       8.64000000  8.64000000E-04
    8.64000000E-04  8.64000000E-04  8.64000000E-04  8.64000000E-04       8.64000000       8.64000000       8.64000000       8.64000000       8.64000000       8.64000000       8.64000000       8.64000000       8.64000000       8.64000000       8.64000000       8.64000000       8.64000000       8.64000000       8.64000000       8.64000000
         8.64000000  8.64000000E-04       8.64000000       8.64000000  8.64000000E-04  8.64000000E-04       8.64000000       8.64000000       8.64000000       8.64000000       8.64000000       8.64000000       8.64000000       8.64000000  8.64000000E-04       8.64000000       8.64000000       8.64000000       8.64000000       8.64000000
         8.64000000       8.64000000  8.64000000E-04       8.64000000       8.64000000       8.64000000       8.64000000       8.64000000       8.64000000       8.64000000       8.64000000       8.64000000       8.64000000       8.64000000       8.64000000       8.64000000       8.64000000       8.64000000       8.64000000       8.64000000
         8.64000000       8.64000000       8.64000000       8.64000000       8.64000000       8.64000000       8.64000000       8.64000000       8.64000000       8.64000000       8.64000000       8.64000000       8.64000000       8.64000000       8.64000000       8.64000000       8.64000000       8.64000000       8.64000000       8.64000000
         8.64000000       8.64000000       8.64000000       8.64000000       8.64000000       8.64000000       8.64000000       8.64000000       8.64000000       8.64000000       8.64000000       8.64000000       8.64000000       8.64000000       8.64000000       8.64000000       8.64000000       8.64000000       8.64000000       8.64000000
    8.64000000E-04       8.64000000       8.64000000       8.64000000       8.64000000       8.64000000       8.64000000       8.64000000       8.64000000       8.64000000       8.64000000       8.64000000       8.64000000       8.64000000       8.64000000       8.64000000       8.64000000       8.64000000       8.64000000       8.64000000
         8.64000000       8.64000000       8.64000000       8.64000000       8.64000000       8.64000000       8.64000000       8.64000000       8.64000000       8.64000000       8.64000000       8.64000000       8.64000000       8.64000000       8.64000000  8.64000000E-04       8.64000000       8.64000000  8.64000000E-04       8.64000000
         8.64000000       8.64000000       8.64000000  8.64000000E-04       8.64000000       8.64000000       8.64000000  8.64000000E-04  8.64000000E-04  8.64000000E-04  8.64000000E-04  8.64000000E-04       8.64000000  8.64000000E-04       8.64000000       8.64000000       8.64000000       8.64000000       8.64000000  8.64000000E-04
         8.64000000       8.64000000       8.64000000       8.64000000       8.64000000       8.64000000       8.64000000       8.64000000       8.64000000       8.64000000       8.64000000       8.64000000       8.64000000       8.64000000       8.64000000  8.64000000E-04       8.64000000       8.64000000       8.64000000       8.64000000
         8.64000000       8.64000000       8.64000000       8.64000000       8.64000000       8.64000000       8.64000000       8.64000000       8.64000000       8.64000000       8.64000000       8.64000000       8.64000000       8.64000000  8.64000000E-04  8.64000000E-04       8.64000000       8.64000000       8.64000000       8.64000000
         8.64000000  8.64000000E-04       8.64000000       8.64000000       8.64000000       8.64000000       8.64000000       8.64000000       8.64000000       8.64000000       8.64000000       8.64000000       8.64000000       8.64000000       8.64000000       8.64000000       8.64000000       8.64000000       8.64000000       8.64000000
         8.64000000       8.64000000       8.64000000       8.64000000       8.64000000       8.64000000       8.64000000       8.64000000       8.64000000       8.64000000       8.64000000       8.64000000       8.64000000       8.64000000       8.64000000       8.64000000       8.64000000       8.64000000       8.64000000       8.64000000
         8.64000000       8.64000000       8.64000000       8.64000000       8.64000000       8.64000000       8.64000000       8.64000000  8.64000000E-04       8.64000000       8.64000000       8.64000000       8.64000000       8.64000000       8.64000000       8.64000000       8.64000000       8.64000000       8.64000000       8.64000000
         8.64000000  8.64000000E-04       8.64000000       8.64000000       8.64000000       8.64000000       8.64000000       8.64000000       8.64000000  8.64000000E-04  8.64000000E-04  8.64000000E-04  8.64000000E-04  8.64000000E-04       8.64000000       8.64000000       8.64000000  8.64000000E-04  8.64000000E-04  8.64000000E-04
    8.64000000E-04  8.64000000E-04  8.64000000E-04  8.64000000E-04       8.64000000       8.64000000       8.64000000       8.64000000       8.64000000       8.64000000       8.64000000       8.64000000       8.64000000       8.64000000       8.64000000       8.64000000       8.64000000       8.64000000       8.64000000       8.64000000
         8.64000000       8.64000000       8.64000000       8.64000000       8.64000000       8.64000000       8.64000000       8.64000000       8.64000000       8.64000000       8.64000000       8.64000000       8.64000000       8.64000000       8.64000000       8.64000000       8.64000000       8.64000000       8.64000000  8.64000000E-04
    8.64000000E-04  8.64000000E-04  8.64000000E-04  8.64000000E-04       8.64000000       8.64000000  8.64000000E-04  8.64000000E-04       8.64000000       8.64000000  8.64000000E-04  8.64000000E-04       8.64000000       8.64000000       8.64000000       8.64000000       8.64000000       8.64000000       8.64000000       8.64000000
         8.64000000       8.64000000       8.64000000       8.64000000       8.64000000       8.64000000       8.64000000       8.64000000       8.64000000       8.64000000  8.64000000E-04  8.64000000E-04       8.64000000       8.64000000       8.64000000       8.64000000       8.64000000       8.64000000       8.64000000       8.64000000
         8.64000000       8.64000000       8.64000000       8.64000000  8.64000000E-04  8.64000000E-04       8.64000000       8.64000000  8.64000000E-04  8.64000000E-04  8.64000000E-04  8.64000000E-04       8.64000000       8.64000000       8.64000000       8.64000000       8.64000000       8.64000000       8.64000000       8.64000000
         8.64000000       8.64000000       8.64000000       8.64000000       8.64000000       8.64000000       8.64000000  8.64000000E-04       8.64000000       8.64000000       8.64000000       8.64000000       8.64000000  8.64000000E-04       8.64000000       8.64000000       8.64000000  8.64000000E-04       8.64000000       8.64000000
         8.64000000       8.64000000       8.64000000       8.64000000       8.64000000       8.64000000       8.64000000       8.64000000       8.64000000       8.64000000       8.64000000       8.64000000       8.64000000       8.64000000       8.64000000       8.64000000       8.64000000       8.64000000       8.64000000       8.64000000
         8.64000000       8.64000000       8.64000000       8.64000000       8.64000000       8.64000000       8.64000000       8.64000000       8.64000000       8.64000000       8.64000000       8.64000000       8.64000000       8.64000000       8.64000000       8.64000000       8.64000000  8.64000000E-04  8.64000000E-04  8.64000000E-04
         8.64000000       8.64000000       8.64000000       8.64000000       8.64000000       8.64000000       8.64000000       8.64000000       8.64000000       8.64000000       8.64000000       8.64000000  8.64000000E-04  8.64000000E-04       8.64000000       8.64000000       8.64000000       8.64000000       8.64000000       8.64000000
         8.64000000       8.64000000       8.64000000       8.64000000       8.64000000       8.64000000       8.64000000  8.64000000E-04  8.64000000E-04       8.64000000       8.64000000       8.64000000       8.64000000       8.64000000       8.64000000       8.64000000  8.64000000E-04  8.64000000E-04       8.64000000       8.64000000
         8.64000000       8.64000000       8.64000000       8.64000000       8.64000000       8.64000000       8.64000000       8.64000000       8.64000000       8.64000000       8.64000000       8.64000000       8.64000000       8.64000000       8.64000000       8.64000000       8.64000000       8.64000000  8.64000000E-04       8.64000000
         8.64000000  8.64000000E-04  8.64000000E-04  8.64000000E-04       8.64000000  8.64000000E-04       8.64000000       8.64000000       8.64000000       8.64000000       8.64000000  8.64000000E-04       8.64000000       8.64000000       8.64000000       8.64000000       8.64000000       8.64000000       8.64000000       8.64000000
         8.64000000       8.64000000       8.64000000       8.64000000       8.64000000       8.64000000       8.64000000       8.64000000       8.64000000       8.64000000       8.64000000       8.64000000       8.64000000       8.64000000       8.64000000       8.64000000       8.64000000       8.64000000       8.64000000  8.64000000E-04
    8.64000000E-04       8.64000000       8.64000000       8.64000000       8.64000000       8.64000000       8.64000000       8.64000000       8.64000000       8.64000000       8.64000000       8.64000000       8.64000000       8.64000000       8.64000000       8.64000000       8.64000000       8.64000000       8.64000000       8.64000000
         8.64000000       8.64000000       8.64000000       8.64000000       8.64000000       8.64000000       8.64000000       8.64000000       8.64000000       8.64000000       8.64000000       8.64000000       8.64000000       8.64000000       8.64000000       8.64000000       8.64000000       8.64000000       8.64000000       8.64000000
         8.64000000       8.64000000       8.64000000       8.64000000       8.64000000       8.64000000       8.64000000       8.64000000       8.64000000       8.64000000       8.64000000       8.64000000       8.64000000       8.64000000       8.64000000       8.64000000       8.64000000       8.64000000       8.64000000       8.64000000
         8.64000000       8.64000000       8.64000000       8.64000000       8.64000000       8.64000000       8.64000000       8.64000000       8.64000000       8.64000000       8.64000000       8.64000000       8.64000000       8.64000000       8.64000000       8.64000000       8.64000000       8.64000000       8.64000000       8.64000000
         8.64000000       8.64000000       8.64000000       8.64000000       8.64000000       8.64000000       8.64000000       8.64000000       8.64000000       8.64000000       8.64000000       8.64000000       8.64000000       8.64000000       8.64000000  8.64000000E-04       8.64000000       8.64000000       8.64000000       8.64000000
         8.64000000       8.64000000       8.64000000       8.64000000       8.64000000       8.64000000       8.64000000       8.64000000       8.64000000       8.64000000       8.64000000       8.64000000       8.64000000       8.64000000       8.64000000       8.64000000       8.64000000  8.64000000E-04  8.64000000E-04       8.64000000
         8.64000000       8.64000000       8.64000000       8.64000000       8.64000000       8.64000000       8.64000000       8.64000000       8.64000000       8.64000000       8.64000000       8.64000000       8.64000000       8.64000000       8.64000000       8.64000000       8.64000000       8.64000000       8.64000000       8.64000000
         8.64000000       8.64000000       8.64000000       8.64000000       8.64000000       8.64000000       8.64000000       8.64000000       8.64000000       8.64000000       8.64000000       8.64000000       8.64000000       8.64000000       8.64000000       8.64000000       8.64000000       8.64000000       8.64000000       8.64000000
         8.64000000       8.64000000       8.64000000       8.64000000       8.64000000       8.64000000       8.64000000       8.64000000       8.64000000       8.64000000       8.64000000       8.64000000       8.64000000       8.64000000       8.64000000       8.64000000       8.64000000       8.64000000       8.64000000       8.64000000
         8.64000000       8.64000000       8.64000000       8.64000000       8.64000000       8.64000000       8.64000000       8.64000000       8.64000000       8.64000000       8.64000000       8.64000000       8.64000000       8.64000000       8.64000000       8.64000000       8.64000000       8.64000000       8.64000000       8.64000000
         8.64000000       8.64000000       8.64000000       8.64000000       8.64000000       8.64000000       8.64000000       8.64000000       8.64000000       8.64000000       8.64000000       8.64000000       8.64000000       8.64000000  8.64000000E-04       8.64000000       8.64000000       8.64000000       8.64000000       8.64000000
         8.64000000       8.64000000       8.64000000       8.64000000       8.64000000       8.64000000       8.64000000       8.64000000       8.64000000       8.64000000       8.64000000       8.64000000       8.64000000       8.64000000       8.64000000       8.64000000       8.64000000       8.64000000       8.64000000  8.64000000E-04
         8.64000000       8.64000000       8.64000000       8.64000000       8.64000000       8.64000000       8.64000000       8.64000000       8.64000000       8.64000000       8.64000000       8.64000000       8.64000000       8.64000000       8.64000000       8.64000000       8.64000000       8.64000000       8.64000000       8.64000000
         8.64000000       8.64000000       8.64000000       8.64000000       8.64000000       8.64000000       8.64000000       8.64000000       8.64000000       8.64000000       8.64000000  8.64000000E-04       8.64000000       8.64000000       8.64000000       8.64000000       8.64000000       8.64000000       8.64000000       8.64000000
         8.64000000       8.64000000       8.64000000       8.64000000       8.64000000       8.64000000       8.64000000       8.64000000       8.64000000       8.64000000       8.64000000       8.64000000       8.64000000       8.64000000       8.64000000       8.64000000       8.64000000       8.64000000       8.64000000       8.64000000