# File generated by Flopy version 3.7.0 on 05/31/2024 at 13:13:18.
BEGIN options
  BUDGET  FILEOUT  gwf-ates.cbc
  HEAD  FILEOUT  gwf-ates.hds
END options

BEGIN period  1
  SAVE  HEAD  All
  SAVE  BUDGET  ALL
  PRINT  HEAD  ALL
  PRINT  BUDGET  ALL
END period  1

